# generated using pymatgen
data_Li21P4S17Br7
_symmetry_space_group_name_H-M   'P 1'
_cell_length_a   9.97470218
_cell_length_b   10.29545393
_cell_length_c   10.15634987
_cell_angle_alpha   89.95732872
_cell_angle_beta   90.57063933
_cell_angle_gamma   88.97724538
_symmetry_Int_Tables_number   1
_chemical_formula_structural   Li21P4S17Br7
_chemical_formula_sum   'Li21 P4 S17 Br7'
_cell_volume   1042.77874602
_cell_formula_units_Z   1
loop_
 _symmetry_equiv_pos_site_id
 _symmetry_equiv_pos_as_xyz
  1  'x, y, z'
loop_
 _atom_site_type_symbol
 _atom_site_label
 _atom_site_symmetry_multiplicity
 _atom_site_fract_x
 _atom_site_fract_y
 _atom_site_fract_z
 _atom_site_occupancy
  Br  Br0  1  0.244057  0.254538  0.755616  1
  Br  Br1  1  0.749620  0.750891  0.752379  1
  Br  Br2  1  0.762729  0.243120  0.249305  1
  Br  Br3  1  0.020546  0.983362  1.004218  1
  Br  Br4  1  0.974966  0.454047  0.529381  1
  Br  Br5  1  0.514751  0.013754  0.465691  1
  Br  Br6  1  0.486761  0.522059  0.025092  1
  Li  Li7  1  0.997019  0.273732  0.709572  1
  Li  Li8  1  0.981394  0.810401  0.810944  1
  Li  Li9  1  0.020926  0.320580  0.317732  1
  Li  Li10  1  0.021467  0.785488  0.192999  1
  Li  Li11  1  0.725550  0.995491  0.317640  1
  Li  Li12  1  0.649118  0.975699  0.696545  1
  Li  Li13  1  0.219919  0.985771  0.215281  1
  Li  Li14  1  0.210983  0.018518  0.833716  1
  Li  Li15  1  0.306868  0.721394  0.010138  1
  Li  Li16  1  0.675566  0.705179  0.979698  1
  Li  Li17  1  0.338174  0.321686  0.981550  1
  Li  Li18  1  0.838326  0.167463  1.001574  1
  Li  Li19  1  0.769218  0.517500  0.693390  1
  Li  Li20  1  0.680372  0.483086  0.191838  1
  Li  Li21  1  0.191082  0.493049  0.683690  1
  Li  Li22  1  0.291546  0.532661  0.217466  1
  Li  Li23  1  0.326586  0.187122  0.526711  1
  Li  Li24  1  0.772178  0.289031  0.498581  1
  Li  Li25  1  0.218779  0.747597  0.463720  1
  Li  Li26  1  0.508240  0.201367  0.291879  1
  Li  Li27  1  0.480994  0.785265  0.298425  1
  P  P28  1  0.005067  0.995280  0.508727  1
  P  P29  1  0.513506  0.004217  1.000008  1
  P  P30  1  0.997370  0.499308  0.996223  1
  P  P31  1  0.489083  0.494270  0.496231  1
  S  S32  1  0.123631  0.118273  0.399440  1
  S  S33  1  0.907392  0.864971  0.394587  1
  S  S34  1  0.866394  0.100486  0.617469  1
  S  S35  1  0.131547  0.894741  0.636108  1
  S  S36  1  0.382858  0.121578  0.107711  1
  S  S37  1  0.411018  0.887170  0.873158  1
  S  S38  1  0.626274  0.887576  0.127454  1
  S  S39  1  0.629561  0.121721  0.889858  1
  S  S40  1  0.124905  0.386227  0.111449  1
  S  S41  1  0.874152  0.382020  0.885948  1
  S  S42  1  0.113092  0.614634  0.878285  1
  S  S43  1  0.874927  0.612353  0.113340  1
  S  S44  1  0.367688  0.618411  0.599582  1
  S  S45  1  0.370804  0.374035  0.377759  1
  S  S46  1  0.590618  0.373540  0.624720  1
  S  S47  1  0.618920  0.600547  0.387342  1
  S  S48  1  0.253454  0.758791  0.236354  1
