# generated using pymatgen
data_Li11P2(S3Cl)3
_symmetry_space_group_name_H-M   'P 1'
_cell_length_a   10.01652557
_cell_length_b   9.85532057
_cell_length_c   9.83550972
_cell_angle_alpha   88.66019241
_cell_angle_beta   91.14600867
_cell_angle_gamma   91.14912652
_symmetry_Int_Tables_number   1
_chemical_formula_structural   Li11P2(S3Cl)3
_chemical_formula_sum   'Li22 P4 S18 Cl6'
_cell_volume   970.27691537
_cell_formula_units_Z   2
loop_
 _symmetry_equiv_pos_site_id
 _symmetry_equiv_pos_as_xyz
  1  'x, y, z'
loop_
 _atom_site_type_symbol
 _atom_site_label
 _atom_site_symmetry_multiplicity
 _atom_site_fract_x
 _atom_site_fract_y
 _atom_site_fract_z
 _atom_site_occupancy
  Cl  Cl1  1  0.242185  0.250283  0.774988  1
  Cl  Cl2  1  0.748820  0.739432  0.758275  1
  Cl  Cl3  1  0.263311  0.757283  0.281578  1
  Cl  Cl4  1  0.501768  0.505892  0.529464  1
  Cl  Cl5  1  0.009255  0.026936  0.526298  1
  Cl  Cl6  1  0.976240  0.486399  0.016102  1
  Li  Li7  1  0.009843  0.203618  0.705304  1
  Li  Li8  1  0.530246  0.223983  0.163109  1
  Li  Li9  1  0.970478  0.657930  0.833517  1
  Li  Li10  1  0.490301  0.800793  0.215242  1
  Li  Li11  1  0.970988  0.189501  0.324915  1
  Li  Li12  1  0.478133  0.154750  0.853400  1
  Li  Li13  1  0.054026  0.696754  0.151460  1
  Li  Li14  1  0.518442  0.730427  0.623008  1
  Li  Li15  1  0.699327  0.020634  0.222959  1
  Li  Li16  1  0.685172  0.507876  0.707917  1
  Li  Li17  1  0.802576  0.959343  0.652242  1
  Li  Li18  1  0.807657  0.486213  0.217550  1
  Li  Li19  1  0.305757  0.001226  0.191351  1
  Li  Li20  1  0.318049  0.468710  0.688914  1
  Li  Li21  1  0.328674  0.518530  0.342025  1
  Li  Li22  1  0.354586  0.872815  0.899699  1
  Li  Li23  1  0.228206  0.144035  0.548304  1
  Li  Li24  1  0.676707  0.834130  0.977143  1
  Li  Li25  1  0.676650  0.297409  0.467121  1
  Li  Li26  1  0.163423  0.331777  0.994841  1
  Li  Li27  1  0.121990  0.804315  0.481114  1
  Li  Li28  1  0.813012  0.283089  0.018991  1
  P  P29  1  0.994043  0.985201  0.015504  1
  P  P30  1  0.011065  0.498843  0.510719  1
  P  P31  1  0.494945  0.012991  0.516338  1
  P  P32  1  0.498382  0.511953  0.001880  1
  S  S33  1  0.107023  0.121985  0.126526  1
  S  S34  1  0.122410  0.611118  0.647528  1
  S  S35  1  0.616428  0.123393  0.645165  1
  S  S36  1  0.623892  0.625042  0.122236  1
  S  S37  1  0.870970  0.874290  0.141157  1
  S  S38  1  0.869086  0.383799  0.614404  1
  S  S39  1  0.349021  0.915111  0.629548  1
  S  S40  1  0.363162  0.407792  0.122750  1
  S  S41  1  0.877736  0.090511  0.875715  1
  S  S42  1  0.927275  0.635024  0.377142  1
  S  S43  1  0.401063  0.141496  0.380267  1
  S  S44  1  0.403546  0.632561  0.859172  1
  S  S45  1  0.112651  0.843893  0.930340  1
  S  S46  1  0.137704  0.367309  0.419364  1
  S  S47  1  0.613430  0.874712  0.426092  1
  S  S48  1  0.604498  0.369790  0.899402  1
  S  S49  1  0.754686  0.252651  0.249953  1
  S  S50  1  0.501164  0.993346  0.048854  1
