# generated using pymatgen
data_Li23P4S19Br5
_symmetry_space_group_name_H-M   'P 1'
_cell_length_a   10.06054611
_cell_length_b   10.14596538
_cell_length_c   10.14652791
_cell_angle_alpha   88.73238270
_cell_angle_beta   90.74206163
_cell_angle_gamma   91.05235595
_symmetry_Int_Tables_number   1
_chemical_formula_structural   Li23P4S19Br5
_chemical_formula_sum   'Li23 P4 S19 Br5'
_cell_volume   1035.18656490
_cell_formula_units_Z   1
loop_
 _symmetry_equiv_pos_site_id
 _symmetry_equiv_pos_as_xyz
  1  'x, y, z'
loop_
 _atom_site_type_symbol
 _atom_site_label
 _atom_site_symmetry_multiplicity
 _atom_site_fract_x
 _atom_site_fract_y
 _atom_site_fract_z
 _atom_site_occupancy
  Br  Br0  1  0.253895  0.246996  0.742293  1
  Br  Br1  1  0.741236  0.737777  0.752698  1
  Br  Br2  1  0.032982  -0.035168  0.018598  1
  Br  Br3  1  -0.004936  0.507340  0.468076  1
  Br  Br4  1  0.512005  0.008395  0.490770  1
  Li  Li5  1  0.011942  0.324108  0.654373  1
  Li  Li6  1  -0.030642  0.800373  0.833504  1
  Li  Li7  1  0.984433  0.262476  0.265435  1
  Li  Li8  1  0.012279  0.768117  0.226974  1
  Li  Li9  1  0.767085  0.021717  0.211664  1
  Li  Li10  1  0.666597  0.969303  0.686215  1
  Li  Li11  1  0.214554  0.986783  0.222356  1
  Li  Li12  1  0.194775  0.014476  0.818495  1
  Li  Li13  1  0.226842  0.779199  0.033670  1
  Li  Li14  1  0.638485  0.651573  0.022963  1
  Li  Li15  1  0.314513  0.314384  -0.015613  1
  Li  Li16  1  0.728106  0.285414  0.007547  1
  Li  Li17  1  0.694626  0.495887  0.794549  1
  Li  Li18  1  0.797587  0.472313  0.288617  1
  Li  Li19  1  0.375537  0.576651  0.835659  1
  Li  Li20  1  0.240828  0.530707  0.259364  1
  Li  Li21  1  0.332488  0.178527  0.508260  1
  Li  Li22  1  0.693843  0.192812  0.454981  1
  Li  Li23  1  0.194569  0.709072  0.488703  1
  Li  Li24  1  0.809417  0.682941  0.516913  1
  Li  Li25  1  0.532260  0.313806  0.186731  1
  Li  Li26  1  0.470266  0.808118  0.323362  1
  Li  Li27  1  0.505799  0.283068  0.790441  1
  P  P28  1  -0.007841  -0.001413  0.508068  1
  P  P29  1  0.499393  -0.010519  -0.002533  1
  P  P30  1  0.007624  0.498736  -0.011757  1
  P  P31  1  0.503426  0.495757  0.488837  1
  S  S32  1  0.119691  0.117408  0.397450  1
  S  S33  1  0.875110  0.883472  0.385760  1
  S  S34  1  0.873091  0.116354  0.615831  1
  S  S35  1  0.099852  0.878605  0.633648  1
  S  S36  1  0.388745  0.116106  0.106782  1
  S  S37  1  0.383233  0.874879  0.876602  1
  S  S38  1  0.605018  0.867288  0.124242  1
  S  S39  1  0.632816  0.096761  0.883512  1
  S  S40  1  0.125043  0.383837  0.111036  1
  S  S41  1  0.899964  0.379952  0.863755  1
  S  S42  1  0.129845  0.621693  0.878433  1
  S  S43  1  0.880153  0.609016  0.097053  1
  S  S44  1  0.391838  0.613293  0.600663  1
  S  S45  1  0.387227  0.376371  0.369316  1
  S  S46  1  0.625446  0.374212  0.600529  1
  S  S47  1  0.622278  0.614677  0.369132  1
  S  S48  1  0.755450  0.250145  0.237322  1
  S  S49  1  0.242987  0.759031  0.264140  1
  S  S50  1  0.524759  0.447175  -0.035422  1
