# generated using pymatgen
data_Li7SnS5Br
_symmetry_space_group_name_H-M   'P 1'
_cell_length_a   10.67500534
_cell_length_b   10.60624414
_cell_length_c   10.51955008
_cell_angle_alpha   91.23231623
_cell_angle_beta   89.42474401
_cell_angle_gamma   89.28098616
_symmetry_Int_Tables_number   1
_chemical_formula_structural   Li7SnS5Br
_chemical_formula_sum   'Li28 Sn4 S20 Br4'
_cell_volume   1190.60892410
_cell_formula_units_Z   4
loop_
 _symmetry_equiv_pos_site_id
 _symmetry_equiv_pos_as_xyz
  1  'x, y, z'
loop_
 _atom_site_type_symbol
 _atom_site_label
 _atom_site_symmetry_multiplicity
 _atom_site_fract_x
 _atom_site_fract_y
 _atom_site_fract_z
 _atom_site_occupancy
  Li  Li0  1  0.022272  0.306428  0.797138  1
  Li  Li1  1  0.986211  0.723983  0.765591  1
  Li  Li2  1  0.024892  0.192115  0.306934  1
  Li  Li3  1  0.016203  0.808583  0.289822  1
  Li  Li4  1  0.830248  0.997257  0.332595  1
  Li  Li5  1  0.710113  0.997586  0.792341  1
  Li  Li6  1  0.207168  0.988164  0.303104  1
  Li  Li7  1  0.216923  0.713181  0.974606  1
  Li  Li8  1  0.771814  0.754351  0.967625  1
  Li  Li9  1  0.231406  0.300848  0.983284  1
  Li  Li10  1  0.752722  0.526736  0.726302  1
  Li  Li11  1  0.701369  0.557714  0.307733  1
  Li  Li12  1  0.248090  0.486542  0.764069  1
  Li  Li13  1  0.224479  0.212656  0.526492  1
  Li  Li14  1  0.730289  0.290626  0.494544  1
  Li  Li15  1  0.189768  0.837966  0.554166  1
  Li  Li16  1  0.400760  0.107326  0.134145  1
  Li  Li17  1  0.567907  0.848135  0.161896  1
  Li  Li18  1  0.484503  0.307359  0.693424  1
  Li  Li19  1  0.516470  0.816666  0.835190  1
  Li  Li20  1  0.389703  0.361863  0.333222  1
  Li  Li21  1  0.085894  0.529919  0.210603  1
  Li  Li22  1  0.573842  0.721947  0.572816  1
  Li  Li23  1  0.844161  0.798850  0.514741  1
  Li  Li24  1  0.536967  0.216789  0.947434  1
  Li  Li25  1  0.747200  0.073197  0.059450  1
  Li  Li26  1  0.319257  0.031034  0.793668  1
  Li  Li27  1  -0.000002  0.027621  0.683843  1
  Sn  Sn28  1  0.025263  0.007400  0.992888  1
  Sn  Sn29  1  0.024766  0.499429  0.500372  1
  Sn  Sn30  1  0.521246  0.005882  0.499714  1
  Sn  Sn31  1  0.520222  0.507550  0.987622  1
  S  S32  1  0.162781  0.128991  0.124411  1
  S  S33  1  0.881879  0.887525  0.120918  1
  S  S34  1  0.887183  0.133110  0.866058  1
  S  S35  1  0.137464  0.882352  0.835160  1
  S  S36  1  0.144802  0.634886  0.631841  1
  S  S37  1  0.891997  0.372573  0.625979  1
  S  S38  1  0.908686  0.624290  0.350638  1
  S  S39  1  0.157467  0.367359  0.363843  1
  S  S40  1  0.637984  0.143381  0.632208  1
  S  S41  1  0.401604  0.871318  0.635608  1
  S  S42  1  0.378605  0.121628  0.368121  1
  S  S43  1  0.655728  0.856901  0.383147  1
  S  S44  1  0.648722  0.643109  0.113551  1
  S  S45  1  0.413396  0.345528  0.106656  1
  S  S46  1  0.389559  0.633933  0.856682  1
  S  S47  1  0.642110  0.377160  0.844560  1
  S  S48  1  0.259169  0.253886  0.751244  1
  S  S49  1  0.759375  0.760027  0.735399  1
  S  S50  1  0.029206  0.978023  0.456907  1
  S  S51  1  0.545083  0.997313  0.985030  1
  Br  Br52  1  0.789459  0.221548  0.264380  1
  Br  Br53  1  0.235754  0.753644  0.215637  1
  Br  Br54  1  0.066683  0.501215  0.969300  1
  Br  Br55  1  0.553179  0.480377  0.481131  1
