data_Li6PS5Br_2a2c
_audit_creation_date              2019-05-29
_audit_creation_method            'Materials Studio'
_symmetry_space_group_name_H-M    'P1'
_symmetry_Int_Tables_number       1
_symmetry_cell_setting            triclinic
loop_
_symmetry_equiv_pos_as_xyz
  x,y,z
_cell_length_a                    9.9853
_cell_length_b                    10.1473
_cell_length_c                    10.3357
_cell_angle_alpha                 90.0488
_cell_angle_beta                  88.4585
_cell_angle_gamma                 90.0753
loop_
_atom_site_label
_atom_site_type_symbol
_atom_site_fract_x
_atom_site_fract_y
_atom_site_fract_z
_atom_site_U_iso_or_equiv
_atom_site_adp_type
_atom_site_occupancy
Br1    Br    0.26257   0.25256   0.75401   0.00000  Uiso   1.00
Br2    Br    0.73675   0.74968   0.74737   0.00000  Uiso   1.00
Br3    Br   -0.01060   0.04948   0.03397   0.00000  Uiso   1.00
Br4    Br    0.00215   0.53353   0.46230   0.00000  Uiso   1.00
Li5    Li    0.01950   0.18873   0.81975   0.00000  Uiso   1.00
Li6    Li   -0.01878   0.67848   0.66852   0.00000  Uiso   1.00
Li7    Li    0.99957   0.23307   0.22611   0.00000  Uiso   1.00
Li8    Li    0.00431   0.72318   0.28836   0.00000  Uiso   1.00
Li9    Li    0.79853   0.02175   0.21322   0.00000  Uiso   1.00
Li10   Li    0.69907   0.00014   0.71525   0.00000  Uiso   1.00
Li11   Li    0.19151   0.97294   0.17857   0.00000  Uiso   1.00
Li12   Li    0.32281  -0.00342   0.70093   0.00000  Uiso   1.00
Li13   Li    0.28921   0.67938   0.02673   0.00000  Uiso   1.00
Li14   Li    0.66658   0.67891   0.00882   0.00000  Uiso   1.00
Li15   Li    0.35341   0.33383  -0.00628   0.00000  Uiso   1.00
Li16   Li    0.78540   0.23861   0.03490   0.00000  Uiso   1.00
Li17   Li    0.66846   0.48755   0.80895   0.00000  Uiso   1.00
Li18   Li    0.80562   0.47367   0.31496   0.00000  Uiso   1.00
Li19   Li    0.29748   0.50357   0.78882   0.00000  Uiso   1.00
Li20   Li    0.20141   0.52638   0.29929   0.00000  Uiso   1.00
Li21   Li    0.34115   0.17041   0.47846   0.00000  Uiso   1.00
Li22   Li    0.70156   0.18004   0.47375   0.00000  Uiso   1.00
Li23   Li    0.26080   0.78906   0.46220   0.00000  Uiso   1.00
Li24   Li    0.64365   0.83104   0.50741   0.00000  Uiso   1.00
Li25   Li    0.54038   0.27208   0.23846   0.00000  Uiso   1.00
Li26   Li    0.46510   0.74836   0.23766   0.00000  Uiso   1.00
Li27   Li    0.50902   0.21286   0.70417   0.00000  Uiso   1.00
Li28   Li    0.48741   0.71514   0.79414   0.00000  Uiso   1.00
P29    P     0.00021   0.00619   0.50777   0.00000  Uiso   1.00
P30    P     0.49820   0.01150   0.00978   0.00000  Uiso   1.00
P31    P    -0.00242   0.50985  -0.00585   0.00000  Uiso   1.00
P32    P     0.49976   0.50948   0.49164   0.00000  Uiso   1.00
S33    S     0.12877   0.10599   0.38344   0.00000  Uiso   1.00
S34    S     0.86960   0.89411   0.40227   0.00000  Uiso   1.00
S35    S     0.89095   0.13261   0.62394   0.00000  Uiso   1.00
S36    S     0.11286   0.88647   0.62446   0.00000  Uiso   1.00
S37    S     0.38393   0.13277   0.12855   0.00000  Uiso   1.00
S38    S     0.36945   0.89857   0.90552   0.00000  Uiso   1.00
S39    S     0.61678   0.89045   0.11831   0.00000  Uiso   1.00
S40    S     0.62073   0.13173   0.89757   0.00000  Uiso   1.00
S41    S     0.12971   0.40152   0.10116   0.00000  Uiso   1.00
S42    S     0.88508   0.38843   0.87830   0.00000  Uiso   1.00
S43    S     0.10459   0.63494   0.87432   0.00000  Uiso   1.00
S44    S     0.87110   0.61316   0.11688   0.00000  Uiso   1.00
S45    S     0.37436   0.62878   0.60142   0.00000  Uiso   1.00
S46    S     0.38462   0.38779   0.37968   0.00000  Uiso   1.00
S47    S     0.62662   0.39708   0.59816   0.00000  Uiso   1.00
S48    S     0.61541   0.63031   0.37383   0.00000  Uiso   1.00
S49    S     0.76504   0.24930   0.26061   0.00000  Uiso   1.00
S50    S     0.23670   0.75219   0.24240   0.00000  Uiso   1.00
S51    S     0.51543   0.02933   0.55698   0.00000  Uiso   1.00
S52    S     0.47852   0.53646  -0.05193   0.00000  Uiso   1.00
