data_Li8GeSe6_contcar
_audit_creation_date              2020-09-29
_audit_creation_method            'Materials Studio'
_symmetry_space_group_name_H-M    'P1'
_symmetry_Int_Tables_number       1
_symmetry_cell_setting            triclinic
loop_
_symmetry_equiv_pos_as_xyz
  x,y,z
_cell_length_a                    10.6704
_cell_length_b                    10.8507
_cell_length_c                    10.6440
_cell_angle_alpha                 90.0000
_cell_angle_beta                  92.7827
_cell_angle_gamma                 90.0000
loop_
_atom_site_label
_atom_site_type_symbol
_atom_site_fract_x
_atom_site_fract_y
_atom_site_fract_z
_atom_site_U_iso_or_equiv
_atom_site_adp_type
_atom_site_occupancy
Li0    Li    0.02407   0.19835   0.71529   0.00000  Uiso   1.00
Li1    Li    0.50994   0.21398   0.19579   0.00000  Uiso   1.00
Li2    Li   -0.00994   0.71398   0.80421   0.00000  Uiso   1.00
Li3    Li    0.47593   0.69835   0.28471   0.00000  Uiso   1.00
Li4    Li    0.97593   0.19835   0.28471   0.00000  Uiso   1.00
Li5    Li    0.49006   0.21398   0.80421   0.00000  Uiso   1.00
Li6    Li    0.00994   0.71398   0.19579   0.00000  Uiso   1.00
Li7    Li    0.52407   0.69835   0.71529   0.00000  Uiso   1.00
Li8    Li    0.67731   0.01768   0.18352   0.00000  Uiso   1.00
Li9    Li    0.82270   0.51768   0.81647   0.00000  Uiso   1.00
Li10   Li    0.32270   0.01768   0.81648   0.00000  Uiso   1.00
Li11   Li    0.17730   0.51768   0.18352   0.00000  Uiso   1.00
Li12   Li    0.20584   0.71756   0.01068   0.00000  Uiso   1.00
Li13   Li    0.79416   0.71756  -0.01068   0.00000  Uiso   1.00
Li14   Li    0.29416   0.21756  -0.01068   0.00000  Uiso   1.00
Li15   Li    0.70584   0.21756   0.01068   0.00000  Uiso   1.00
Li16   Li    0.65880   0.96805   0.84859   0.00000  Uiso   1.00
Li17   Li    0.83996   0.97086   0.67174   0.00000  Uiso   1.00
Li18   Li    0.66004   0.47086   0.32826   0.00000  Uiso   1.00
Li19   Li    0.84120   0.46805   0.15141   0.00000  Uiso   1.00
Li20   Li    0.34120   0.96805   0.15141   0.00000  Uiso   1.00
Li21   Li    0.16004   0.97086   0.32826   0.00000  Uiso   1.00
Li22   Li    0.33996   0.47086   0.67174   0.00000  Uiso   1.00
Li23   Li    0.15880   0.46805   0.84859   0.00000  Uiso   1.00
Li24   Li    0.36846   0.38031   0.37858   0.00000  Uiso   1.00
Li25   Li    0.19650   0.19297   0.52216   0.00000  Uiso   1.00
Li26   Li    0.63154   0.38031   0.62142   0.00000  Uiso   1.00
Li27   Li    0.80350   0.19297   0.47784   0.00000  Uiso   1.00
Li28   Li    0.30350   0.69297   0.47784   0.00000  Uiso   1.00
Li29   Li    0.13154   0.88031   0.62142   0.00000  Uiso   1.00
Li30   Li    0.69650   0.69297   0.52216   0.00000  Uiso   1.00
Li31   Li    0.86846   0.88031   0.37858   0.00000  Uiso   1.00
Ge32   Ge    0.00000   0.00747   0.00000   0.00000  Uiso   1.00
Ge33   Ge    0.00000   0.50356   0.50000   0.00000  Uiso   1.00
Ge34   Ge    0.50000   0.00356   0.50000   0.00000  Uiso   1.00
Ge35   Ge    0.50000   0.50747  -0.00000   0.00000  Uiso   1.00
Se36   Se    0.13802   0.12159   0.13457   0.00000  Uiso   1.00
Se37   Se    0.13626   0.62489   0.63329   0.00000  Uiso   1.00
Se38   Se    0.63626   0.12489   0.63329   0.00000  Uiso   1.00
Se39   Se    0.63802   0.62159   0.13457   0.00000  Uiso   1.00
Se40   Se    0.86758   0.89064   0.13138   0.00000  Uiso   1.00
Se41   Se    0.87822   0.37621   0.63036   0.00000  Uiso   1.00
Se42   Se    0.37822   0.87621   0.63036   0.00000  Uiso   1.00
Se43   Se    0.36758   0.39064   0.13138   0.00000  Uiso   1.00
Se44   Se    0.86198   0.12159   0.86543   0.00000  Uiso   1.00
Se45   Se    0.86374   0.62489   0.36671   0.00000  Uiso   1.00
Se46   Se    0.36374   0.12489   0.36671   0.00000  Uiso   1.00
Se47   Se    0.36198   0.62159   0.86543   0.00000  Uiso   1.00
Se48   Se    0.13242   0.89064   0.86862   0.00000  Uiso   1.00
Se49   Se    0.12178   0.37621   0.36965   0.00000  Uiso   1.00
Se50   Se    0.62178   0.87621   0.36965   0.00000  Uiso   1.00
Se51   Se    0.63242   0.39064   0.86862   0.00000  Uiso   1.00
Se52   Se    0.25639   0.25803   0.75219   0.00000  Uiso   1.00
Se53   Se    0.75639   0.75803   0.75219   0.00000  Uiso   1.00
Se54   Se    0.74361   0.25803   0.24781   0.00000  Uiso   1.00
Se55   Se    0.24361   0.75803   0.24781   0.00000  Uiso   1.00
Se56   Se    0.00000   0.03829   0.50000   0.00000  Uiso   1.00
Se57   Se    0.50000   0.53829   0.50000   0.00000  Uiso   1.00
Se58   Se    0.00000   0.56267   0.00000   0.00000  Uiso   1.00
Se59   Se    0.50000   0.06267  -0.00000   0.00000  Uiso   1.00
