# generated using pymatgen
data_Li6Te5PCl
_symmetry_space_group_name_H-M   'P 1'
_cell_length_a   11.38616521
_cell_length_b   11.38616521
_cell_length_c   12.25962703
_cell_angle_alpha   90.00000000
_cell_angle_beta   90.00000000
_cell_angle_gamma   89.63611819
_symmetry_Int_Tables_number   1
_chemical_formula_structural   Li6Te5PCl
_chemical_formula_sum   'Li24 Te20 P4 Cl4'
_cell_volume   1589.36432734
_cell_formula_units_Z   4
loop_
 _symmetry_equiv_pos_site_id
 _symmetry_equiv_pos_as_xyz
  1  'x, y, z'
loop_
 _atom_site_type_symbol
 _atom_site_label
 _atom_site_symmetry_multiplicity
 _atom_site_fract_x
 _atom_site_fract_y
 _atom_site_fract_z
 _atom_site_occupancy
  Cl  Cl0  1  0.000000  0.000000  0.553750  1
  Cl  Cl1  1  0.500000  0.500000  0.553750  1
  Cl  Cl2  1  0.250000  0.250000  0.754932  1
  Cl  Cl3  1  0.750000  0.750000  0.754932  1
  Li  Li4  1  0.022118  0.276081  0.767333  1
  Li  Li5  1  0.515454  0.260737  0.259091  1
  Li  Li6  1  0.977882  0.723919  0.767333  1
  Li  Li7  1  0.484546  0.739263  0.259091  1
  Li  Li8  1  0.984546  0.239263  0.259091  1
  Li  Li9  1  0.477882  0.223919  0.767333  1
  Li  Li10  1  0.015454  0.760737  0.259091  1
  Li  Li11  1  0.522118  0.776081  0.767333  1
  Li  Li12  1  0.760737  0.015454  0.259091  1
  Li  Li13  1  0.776081  0.522118  0.767333  1
  Li  Li14  1  0.723919  0.977882  0.767333  1
  Li  Li15  1  0.739263  0.484546  0.259091  1
  Li  Li16  1  0.239263  0.984546  0.259091  1
  Li  Li17  1  0.223919  0.477882  0.767333  1
  Li  Li18  1  0.276081  0.022118  0.767333  1
  Li  Li19  1  0.260737  0.515454  0.259091  1
  Li  Li20  1  0.250000  0.750000  0.027537  1
  Li  Li21  1  0.250000  0.250000  0.541796  1
  Li  Li22  1  0.750000  0.750000  0.960202  1
  Li  Li23  1  0.750000  0.250000  0.463979  1
  Li  Li24  1  0.250000  0.250000  0.960202  1
  Li  Li25  1  0.250000  0.750000  0.463979  1
  Li  Li26  1  0.750000  0.250000  0.027537  1
  Li  Li27  1  0.750000  0.750000  0.541796  1
  P  P28  1  0.000000  0.000000  -0.006034  1
  P  P29  1  0.000000  0.500000  0.497428  1
  P  P30  1  0.500000  0.000000  0.497428  1
  P  P31  1  0.500000  0.500000  -0.006034  1
  Te  Te32  1  0.128735  0.128735  0.113290  1
  Te  Te33  1  0.127171  0.627171  0.616143  1
  Te  Te34  1  0.627171  0.127171  0.616143  1
  Te  Te35  1  0.628735  0.628735  0.113290  1
  Te  Te36  1  0.871265  0.871265  0.113290  1
  Te  Te37  1  0.872829  0.372829  0.616143  1
  Te  Te38  1  0.372829  0.872829  0.616143  1
  Te  Te39  1  0.371265  0.371265  0.113290  1
  Te  Te40  1  0.871467  0.128533  0.877401  1
  Te  Te41  1  0.867683  0.632317  0.383021  1
  Te  Te42  1  0.367683  0.132317  0.383021  1
  Te  Te43  1  0.371467  0.628533  0.877401  1
  Te  Te44  1  0.128533  0.871467  0.877401  1
  Te  Te45  1  0.132317  0.367683  0.383021  1
  Te  Te46  1  0.632317  0.867683  0.383021  1
  Te  Te47  1  0.628533  0.371467  0.877401  1
  Te  Te48  1  0.000000  0.500000  -0.124695  1
  Te  Te49  1  0.500000  0.000000  -0.124695  1
  Te  Te50  1  0.750000  0.250000  0.245698  1
  Te  Te51  1  0.250000  0.750000  0.245698  1
