# generated using pymatgen
data_Li7GeSe5Cl
_symmetry_space_group_name_H-M   'P 1'
_cell_length_a   10.70335819
_cell_length_b   10.69995691
_cell_length_c   10.69995691
_cell_angle_alpha   89.75479988
_cell_angle_beta   87.89488905
_cell_angle_gamma   87.89488905
_symmetry_Int_Tables_number   1
_chemical_formula_structural   Li7GeSe5Cl
_chemical_formula_sum   'Li28 Ge4 Se20 Cl4'
_cell_volume   1223.75888187
_cell_formula_units_Z   4
loop_
 _symmetry_equiv_pos_site_id
 _symmetry_equiv_pos_as_xyz
  1  'x, y, z'
loop_
 _atom_site_type_symbol
 _atom_site_label
 _atom_site_symmetry_multiplicity
 _atom_site_fract_x
 _atom_site_fract_y
 _atom_site_fract_z
 _atom_site_occupancy
  Li  Li0  1  0.036835  0.303762  0.782836  1
  Li  Li1  1  0.009528  0.771970  0.667583  1
  Li  Li2  1  0.009528  0.271970  0.167583  1
  Li  Li3  1  0.036835  0.803762  0.282836  1
  Li  Li4  1  0.822732  0.018390  0.321682  1
  Li  Li5  1  0.721854  0.976766  0.779093  1
  Li  Li6  1  0.148871  0.086912  0.357347  1
  Li  Li7  1  0.322732  0.821682  0.018390  1
  Li  Li8  1  0.648871  0.857347  0.086912  1
  Li  Li9  1  0.221854  0.279093  0.976766  1
  Li  Li10  1  0.822732  0.518390  0.821682  1
  Li  Li11  1  0.721854  0.476766  0.279093  1
  Li  Li12  1  0.148871  0.586912  0.857347  1
  Li  Li13  1  0.322732  0.321682  0.518390  1
  Li  Li14  1  0.648871  0.357347  0.586912  1
  Li  Li15  1  0.221854  0.779093  0.476766  1
  Li  Li16  1  0.536835  0.282836  0.303762  1
  Li  Li17  1  0.509528  0.667583  0.271970  1
  Li  Li18  1  0.509528  0.167583  0.771970  1
  Li  Li19  1  0.536835  0.782836  0.803762  1
  Li  Li20  1  0.323599  0.483617  0.299298  1
  Li  Li21  1  0.069638  0.533042  0.184948  1
  Li  Li22  1  0.569638  0.684948  0.533042  1
  Li  Li23  1  0.823599  0.799298  0.483617  1
  Li  Li24  1  0.569638  0.184948  0.033042  1
  Li  Li25  1  0.823599  0.299298  0.983617  1
  Li  Li26  1  0.323599  0.983617  0.799298  1
  Li  Li27  1  0.069638  0.033042  0.684948  1
  Ge  Ge28  1  0.011672  0.985070  0.990981  1
  Ge  Ge29  1  0.011672  0.485070  0.490981  1
  Ge  Ge30  1  0.511672  0.990981  0.485070  1
  Ge  Ge31  1  0.511672  0.490981  0.985070  1
  Se  Se32  1  0.160410  0.086872  0.110290  1
  Se  Se33  1  0.878824  0.875803  0.127835  1
  Se  Se34  1  0.901043  0.113110  0.845576  1
  Se  Se35  1  0.135583  0.849176  0.851975  1
  Se  Se36  1  0.160410  0.586872  0.610290  1
  Se  Se37  1  0.878824  0.375803  0.627835  1
  Se  Se38  1  0.901043  0.613110  0.345576  1
  Se  Se39  1  0.135583  0.349176  0.351975  1
  Se  Se40  1  0.660410  0.110290  0.586872  1
  Se  Se41  1  0.401043  0.845576  0.613110  1
  Se  Se42  1  0.378824  0.127835  0.375803  1
  Se  Se43  1  0.635583  0.851975  0.349176  1
  Se  Se44  1  0.660410  0.610290  0.086872  1
  Se  Se45  1  0.401043  0.345576  0.113110  1
  Se  Se46  1  0.378824  0.627835  0.875803  1
  Se  Se47  1  0.635583  0.351975  0.849176  1
  Se  Se48  1  0.019241  0.932432  0.481143  1
  Se  Se49  1  0.519241  0.981143  0.932432  1
  Se  Se50  1  0.019241  0.432432  0.981143  1
  Se  Se51  1  0.519241  0.481143  0.432432  1
  Cl  Cl52  1  0.260170  0.201738  0.743641  1
  Cl  Cl53  1  0.760170  0.743641  0.701738  1
  Cl  Cl54  1  0.760170  0.243641  0.201738  1
  Cl  Cl55  1  0.260170  0.701738  0.243641  1
