# generated using pymatgen
data_Li7SiTe5I
_symmetry_space_group_name_H-M   'P 1'
_cell_length_a   11.45476707
_cell_length_b   11.76088036
_cell_length_c   11.98388228
_cell_angle_alpha   89.68712930
_cell_angle_beta   89.98914095
_cell_angle_gamma   87.69776810
_symmetry_Int_Tables_number   1
_chemical_formula_structural   Li7SiTe5I
_chemical_formula_sum   'Li28 Si4 Te20 I4'
_cell_volume   1613.11920845
_cell_formula_units_Z   4
loop_
 _symmetry_equiv_pos_site_id
 _symmetry_equiv_pos_as_xyz
  1  'x, y, z'
loop_
 _atom_site_type_symbol
 _atom_site_label
 _atom_site_symmetry_multiplicity
 _atom_site_fract_x
 _atom_site_fract_y
 _atom_site_fract_z
 _atom_site_occupancy
  Li  Li0  1  0.015662  0.288831  0.756534  1
  Li  Li1  1  0.998027  0.691852  0.785935  1
  Li  Li2  1  0.006233  0.184976  0.312336  1
  Li  Li3  1  0.995292  0.805173  0.274430  1
  Li  Li4  1  0.796307  0.007705  0.315187  1
  Li  Li5  1  0.725991  0.963592  0.764578  1
  Li  Li6  1  0.198637  0.990874  0.279314  1
  Li  Li7  1  0.363764  0.793362  0.988421  1
  Li  Li8  1  0.714821  0.779615  0.959101  1
  Li  Li9  1  0.208047  0.283229  0.955667  1
  Li  Li10  1  0.806488  0.498385  0.794305  1
  Li  Li11  1  0.697875  0.492660  0.295659  1
  Li  Li12  1  0.216541  0.469318  0.760717  1
  Li  Li13  1  0.312580  0.317538  0.508947  1
  Li  Li14  1  0.609793  0.344722  0.603412  1
  Li  Li15  1  0.168251  0.814999  0.486158  1
  Li  Li16  1  0.495705  0.303851  0.296681  1
  Li  Li17  1  0.453955  0.727667  0.452004  1
  Li  Li18  1  0.484019  0.158472  0.779731  1
  Li  Li19  1  0.524052  0.784184  0.753637  1
  Li  Li20  1  0.442573  0.563681  0.217188  1
  Li  Li21  1  0.260414  0.552176  0.410624  1
  Li  Li22  1  0.822230  0.828380  0.516859  1
  Li  Li23  1  0.717935  0.586649  0.549710  1
  Li  Li24  1  0.631338  0.334399  0.073393  1
  Li  Li25  1  0.865935  0.154072  0.059724  1
  Li  Li26  1  0.202333  0.090934  0.533661  1
  Li  Li27  1  0.151978  0.032534  0.780883  1
  Si  Si28  1  0.009141  0.978627  0.988307  1
  Si  Si29  1  0.993278  0.496516  0.479978  1
  Si  Si30  1  0.499263  0.997870  0.485334  1
  Si  Si31  1  0.504075  0.488566  0.956088  1
  Te  Te32  1  0.113710  0.125758  0.103192  1
  Te  Te33  1  0.850864  0.899039  0.109404  1
  Te  Te34  1  0.904372  0.095717  0.835655  1
  Te  Te35  1  0.145445  0.832620  0.902106  1
  Te  Te36  1  0.129665  0.614585  0.596394  1
  Te  Te37  1  0.859412  0.377328  0.595745  1
  Te  Te38  1  0.864226  0.634282  0.367792  1
  Te  Te39  1  0.127113  0.375591  0.357793  1
  Te  Te40  1  0.638392  0.108871  0.599870  1
  Te  Te41  1  0.358694  0.885698  0.605615  1
  Te  Te42  1  0.367385  0.128273  0.366652  1
  Te  Te43  1  0.621540  0.861106  0.368398  1
  Te  Te44  1  0.639033  0.593858  0.085657  1
  Te  Te45  1  0.383324  0.373864  0.092734  1
  Te  Te46  1  0.383606  0.617106  0.833077  1
  Te  Te47  1  0.631135  0.343223  0.848199  1
  Te  Te48  1  0.255271  0.234282  0.723380  1
  Te  Te49  1  0.761764  0.730785  0.730291  1
  Te  Te50  1  0.008230  0.983197  0.435590  1
  Te  Te51  1  0.499377  0.489014  0.443486  1
  I  I52  1  0.752278  0.248559  0.250039  1
  I  I53  1  0.262240  0.744022  0.259715  1
  I  I54  1  0.527074  0.954365  0.926990  1
  I  I55  1  0.023318  0.469230  0.913502  1
