# generated using pymatgen
data_Li21P4S17Cl7
_symmetry_space_group_name_H-M   'P 1'
_cell_length_a   9.92858104
_cell_length_b   9.86243906
_cell_length_c   9.92137934
_cell_angle_alpha   90.96766108
_cell_angle_beta   89.83754462
_cell_angle_gamma   88.47253537
_symmetry_Int_Tables_number   1
_chemical_formula_structural   Li21P4S17Cl7
_chemical_formula_sum   'Li21 P4 S17 Cl7'
_cell_volume   971.01275998
_cell_formula_units_Z   1
loop_
 _symmetry_equiv_pos_site_id
 _symmetry_equiv_pos_as_xyz
  1  'x, y, z'
loop_
 _atom_site_type_symbol
 _atom_site_label
 _atom_site_symmetry_multiplicity
 _atom_site_fract_x
 _atom_site_fract_y
 _atom_site_fract_z
 _atom_site_occupancy
  Cl  Cl1  1  0.256711  0.270676  0.755060  1
  Cl  Cl2  1  0.764485  0.768375  0.747072  1
  Cl  Cl3  1  0.235734  0.775449  0.267324  1
  Cl  Cl4  1  0.499965  0.522318  0.503136  1
  Cl  Cl5  1  0.732952  0.288204  0.246060  1
  Cl  Cl6  1  0.022329  0.991630  0.494277  1
  Cl  Cl7  1  0.976962  0.523792  0.971866  1
  Li  Li8  1  0.020223  0.330569  0.818455  1
  Li  Li9  1  0.500445  0.235550  0.206473  1
  Li  Li10  1  0.990752  0.710115  0.804420  1
  Li  Li11  1  0.454991  0.640461  0.296165  1
  Li  Li12  1  0.948456  0.168831  0.304251  1
  Li  Li13  1  0.494082  0.166088  0.789386  1
  Li  Li14  1  0.991824  0.824094  0.312070  1
  Li  Li15  1  0.594599  0.729243  0.578922  1
  Li  Li16  1  0.623285  0.891443  0.111448  1
  Li  Li17  1  0.770406  0.540590  0.818595  1
  Li  Li18  1  0.835772  0.980661  0.659040  1
  Li  Li19  1  0.826926  0.500621  0.174797  1
  Li  Li20  1  0.305926  0.998409  0.187899  1
  Li  Li21  1  0.328289  0.489152  0.670393  1
  Li  Li22  1  0.377551  0.896125  0.884512  1
  Li  Li23  1  0.193619  0.634748  0.052464  1
  Li  Li24  1  0.180528  0.178322  0.538272  1
  Li  Li25  1  0.675309  0.351899  0.484805  1
  Li  Li26  1  0.301116  0.235444  0.991028  1
  Li  Li27  1  0.205767  0.819089  0.507606  1
  Li  Li28  1  0.711197  0.168955  0.020260  1
  P  P29  1  0.003069  0.017871  0.007191  1
  P  P30  1  0.992360  0.501126  0.501264  1
  P  P31  1  0.503998  0.010130  0.490760  1
  P  P32  1  0.494975  0.522693  0.995525  1
  S  S33  1  0.113592  0.154630  0.115320  1
  S  S34  1  0.121678  0.617313  0.617074  1
  S  S35  1  0.641880  0.127121  0.591778  1
  S  S36  1  0.625876  0.640337  0.102668  1
  S  S37  1  0.864815  0.949320  0.143860  1
  S  S38  1  0.867716  0.401441  0.633244  1
  S  S39  1  0.397343  0.905143  0.632074  1
  S  S40  1  0.364001  0.438200  0.130600  1
  S  S41  1  0.898926  0.120456  0.859344  1
  S  S42  1  0.875834  0.625087  0.383636  1
  S  S43  1  0.374772  0.136919  0.388813  1
  S  S44  1  0.378763  0.639648  0.869137  1
  S  S45  1  0.127418  0.866918  0.927491  1
  S  S46  1  0.097616  0.359592  0.390261  1
  S  S47  1  0.597598  0.867598  0.369093  1
  S  S48  1  0.604763  0.380121  0.886639  1
  S  S49  1  0.482806  0.064374  0.018174  1
