# generated using pymatgen
data_Li23P4S19I5
_symmetry_space_group_name_H-M   'P 1'
_cell_length_a   10.27580300
_cell_length_b   10.35321757
_cell_length_c   10.14401026
_cell_angle_alpha   89.34780817
_cell_angle_beta   89.88978459
_cell_angle_gamma   90.38552537
_symmetry_Int_Tables_number   1
_chemical_formula_structural   Li23P4S19I5
_chemical_formula_sum   'Li23 P4 S19 I5'
_cell_volume   1079.10064843
_cell_formula_units_Z   1
loop_
 _symmetry_equiv_pos_site_id
 _symmetry_equiv_pos_as_xyz
  1  'x, y, z'
loop_
 _atom_site_type_symbol
 _atom_site_label
 _atom_site_symmetry_multiplicity
 _atom_site_fract_x
 _atom_site_fract_y
 _atom_site_fract_z
 _atom_site_occupancy
  I  I0  1  0.252736  0.260437  0.732448  1
  I  I1  1  0.756586  0.761636  0.763038  1
  I  I2  1  0.735918  0.245052  0.254614  1
  I  I3  1  0.030165  0.013468  0.012060  1
  I  I4  1  -0.004822  0.532256  0.488176  1
  Li  Li5  1  -0.003208  0.182856  0.795358  1
  Li  Li6  1  0.014263  0.692752  0.706212  1
  Li  Li7  1  -0.008959  0.196702  0.211965  1
  Li  Li8  1  0.017636  0.739505  0.273645  1
  Li  Li9  1  0.659559  0.001215  0.343197  1
  Li  Li10  1  0.667392  0.018931  0.653590  1
  Li  Li11  1  0.221624  0.983386  0.227350  1
  Li  Li12  1  0.320750  0.004586  0.693560  1
  Li  Li13  1  0.219271  0.784146  0.027462  1
  Li  Li14  1  0.647155  0.658313  0.028082  1
  Li  Li15  1  0.219524  0.209091  -0.003248  1
  Li  Li16  1  0.709594  0.301688  -0.005092  1
  Li  Li17  1  0.697696  0.501370  0.788851  1
  Li  Li18  1  0.801008  0.490185  0.306317  1
  Li  Li19  1  0.346710  0.516089  0.839185  1
  Li  Li20  1  0.215676  0.535683  0.299631  1
  Li  Li21  1  0.363216  0.165863  0.463104  1
  Li  Li22  1  0.279300  0.806804  0.481421  1
  Li  Li23  1  0.790922  0.709410  0.501297  1
  Li  Li24  1  0.491054  0.348920  0.160294  1
  Li  Li25  1  0.467475  0.799626  0.295992  1
  Li  Li26  1  0.507347  0.295271  0.801269  1
  Li  Li27  1  0.505744  0.794026  0.672233  1
  P  P28  1  -0.001928  0.005825  0.504787  1
  P  P29  1  0.506607  -0.003442  0.000977  1
  P  P30  1  0.005954  0.496802  0.004392  1
  P  P31  1  0.500642  0.499313  0.494473  1
  S  S32  1  0.244857  0.760011  0.256014  1
  S  S33  1  0.480619  -0.034397  0.509494  1
  S  S34  1  0.539092  0.463387  -0.038896  1
  S  S35  1  0.124061  0.119786  0.393143  1
  S  S36  1  0.881328  0.896491  0.381966  1
  S  S37  1  0.876529  0.123616  0.605357  1
  S  S38  1  0.112382  0.893240  0.628043  1
  S  S39  1  0.397242  0.117827  0.118341  1
  S  S40  1  0.391930  0.878720  0.885495  1
  S  S41  1  0.616328  0.882493  0.125022  1
  S  S42  1  0.626045  0.104846  0.878455  1
  S  S43  1  0.117568  0.384368  0.128938  1
  S  S44  1  0.899891  0.385694  0.876048  1
  S  S45  1  0.131679  0.612141  0.894033  1
  S  S46  1  0.883636  0.612911  0.111050  1
  S  S47  1  0.379225  0.609913  0.609875  1
  S  S48  1  0.383828  0.388671  0.372476  1
  S  S49  1  0.619755  0.381175  0.598765  1
  S  S50  1  0.611401  0.621339  0.373329  1
