# generated using pymatgen
data_Li6Te5PBr
_symmetry_space_group_name_H-M   'P 1'
_cell_length_a   11.52906099
_cell_length_b   11.52906099
_cell_length_c   12.17001808
_cell_angle_alpha   90.00000000
_cell_angle_beta   90.00000000
_cell_angle_gamma   86.32718618
_symmetry_Int_Tables_number   1
_chemical_formula_structural   Li6Te5PBr
_chemical_formula_sum   'Li24 Te20 P4 Br4'
_cell_volume   1614.30723531
_cell_formula_units_Z   4
loop_
 _symmetry_equiv_pos_site_id
 _symmetry_equiv_pos_as_xyz
  1  'x, y, z'
loop_
 _atom_site_type_symbol
 _atom_site_label
 _atom_site_symmetry_multiplicity
 _atom_site_fract_x
 _atom_site_fract_y
 _atom_site_fract_z
 _atom_site_occupancy
  Br  Br0  1  0.000000  0.000000  0.393932  1
  Br  Br1  1  0.500000  0.500000  0.393932  1
  Br  Br2  1  0.250000  0.250000  0.751415  1
  Br  Br3  1  0.750000  0.750000  0.751415  1
  Li  Li4  1  0.010555  0.292923  0.786873  1
  Li  Li5  1  0.515136  0.298201  0.288060  1
  Li  Li6  1  0.989445  0.707077  0.786873  1
  Li  Li7  1  0.484864  0.701799  0.288060  1
  Li  Li8  1  0.984864  0.201799  0.288060  1
  Li  Li9  1  0.489445  0.207077  0.786873  1
  Li  Li10  1  0.015136  0.798201  0.288060  1
  Li  Li11  1  0.510555  0.792923  0.786873  1
  Li  Li12  1  0.798201  0.015136  0.288060  1
  Li  Li13  1  0.792923  0.510555  0.786873  1
  Li  Li14  1  0.707077  0.989445  0.786873  1
  Li  Li15  1  0.701799  0.484864  0.288060  1
  Li  Li16  1  0.201799  0.984864  0.288060  1
  Li  Li17  1  0.207077  0.489445  0.786873  1
  Li  Li18  1  0.292923  0.010555  0.786873  1
  Li  Li19  1  0.298201  0.515136  0.288060  1
  Li  Li20  1  0.250000  0.750000  0.029603  1
  Li  Li21  1  0.250000  0.250000  0.534594  1
  Li  Li22  1  0.750000  0.750000  0.967183  1
  Li  Li23  1  0.750000  0.250000  0.466035  1
  Li  Li24  1  0.250000  0.250000  0.967183  1
  Li  Li25  1  0.250000  0.750000  0.466035  1
  Li  Li26  1  0.750000  0.250000  0.029603  1
  Li  Li27  1  0.750000  0.750000  0.534594  1
  P  P28  1  0.000000  0.000000  -0.006229  1
  P  P29  1  0.000000  0.500000  0.495238  1
  P  P30  1  0.500000  0.000000  0.495238  1
  P  P31  1  0.500000  0.500000  -0.006229  1
  Te  Te32  1  0.125076  0.125076  0.108112  1
  Te  Te33  1  0.126018  0.626018  0.611673  1
  Te  Te34  1  0.626018  0.126018  0.611673  1
  Te  Te35  1  0.625076  0.625076  0.108112  1
  Te  Te36  1  0.874924  0.874924  0.108112  1
  Te  Te37  1  0.873982  0.373982  0.611673  1
  Te  Te38  1  0.373982  0.873982  0.611673  1
  Te  Te39  1  0.374924  0.374924  0.108112  1
  Te  Te40  1  0.873378  0.126622  0.866985  1
  Te  Te41  1  0.869197  0.630803  0.374975  1
  Te  Te42  1  0.369197  0.130803  0.374975  1
  Te  Te43  1  0.373378  0.626622  0.866985  1
  Te  Te44  1  0.126622  0.873378  0.866985  1
  Te  Te45  1  0.130803  0.369197  0.374975  1
  Te  Te46  1  0.630803  0.869197  0.374975  1
  Te  Te47  1  0.626622  0.373378  0.866985  1
  Te  Te48  1  0.000000  0.500000  -0.105120  1
  Te  Te49  1  0.500000  0.000000  -0.105120  1
  Te  Te50  1  0.750000  0.250000  0.250131  1
  Te  Te51  1  0.250000  0.750000  0.250131  1
