# generated using pymatgen
data_Li7SnSe5Br
_symmetry_space_group_name_H-M   'P 1'
_cell_length_a   10.94493401
_cell_length_b   11.26049978
_cell_length_c   10.89468338
_cell_angle_alpha   91.02664890
_cell_angle_beta   87.79534831
_cell_angle_gamma   90.12768932
_symmetry_Int_Tables_number   1
_chemical_formula_structural   Li7SnSe5Br
_chemical_formula_sum   'Li28 Sn4 Se20 Br4'
_cell_volume   1341.50903898
_cell_formula_units_Z   4
loop_
 _symmetry_equiv_pos_site_id
 _symmetry_equiv_pos_as_xyz
  1  'x, y, z'
loop_
 _atom_site_type_symbol
 _atom_site_label
 _atom_site_symmetry_multiplicity
 _atom_site_fract_x
 _atom_site_fract_y
 _atom_site_fract_z
 _atom_site_occupancy
  Li  Li0  1  0.034213  0.279893  0.819077  1
  Li  Li1  1  -0.006969  0.794130  0.720707  1
  Li  Li2  1  0.061834  0.306429  0.181242  1
  Li  Li3  1  0.982539  0.811650  0.311725  1
  Li  Li4  1  0.674838  0.978604  0.165428  1
  Li  Li5  1  0.695963  -0.014157  0.816319  1
  Li  Li6  1  0.164046  0.005007  0.365973  1
  Li  Li7  1  0.322354  0.813017  0.019455  1
  Li  Li8  1  0.672071  0.772588  0.003262  1
  Li  Li9  1  0.269514  0.155447  0.993646  1
  Li  Li10  1  0.882246  0.483956  0.808401  1
  Li  Li11  1  0.853974  0.577825  0.128147  1
  Li  Li12  1  0.349620  0.580520  0.653632  1
  Li  Li13  1  0.281995  0.271537  0.533661  1
  Li  Li14  1  0.684217  0.344817  0.612934  1
  Li  Li15  1  0.176537  0.774726  0.522369  1
  Li  Li16  1  0.492329  0.286913  0.301632  1
  Li  Li17  1  0.485078  0.734855  0.288149  1
  Li  Li18  1  0.474860  0.266095  0.732863  1
  Li  Li19  1  0.508419  0.778196  0.798501  1
  Li  Li20  1  0.224896  0.422879  0.922347  1
  Li  Li21  1  0.111264  0.560825  0.219635  1
  Li  Li22  1  0.810545  0.044248  0.490465  1
  Li  Li23  1  0.808695  0.768688  0.512260  1
  Li  Li24  1  0.555794  0.181059  0.018280  1
  Li  Li25  1  0.824454  0.281771  0.009680  1
  Li  Li26  1  0.349510  -0.003374  0.794275  1
  Li  Li27  1  0.086158  0.045825  0.709470  1
  Sn  Sn28  1  0.002356  0.976110  0.009087  1
  Sn  Sn29  1  0.023048  0.479924  0.500164  1
  Sn  Sn30  1  0.499608  0.985666  0.501154  1
  Sn  Sn31  1  0.510940  0.480211  -0.000546  1
  Se  Se32  1  0.119513  0.095838  0.163645  1
  Se  Se33  1  0.860726  0.828814  0.116536  1
  Se  Se34  1  0.887532  0.104512  0.861638  1
  Se  Se35  1  0.157903  0.873238  0.864239  1
  Se  Se36  1  0.114777  0.606212  0.670395  1
  Se  Se37  1  0.907956  0.324381  0.626128  1
  Se  Se38  1  0.894319  0.607003  0.360773  1
  Se  Se39  1  0.185502  0.393347  0.354223  1
  Se  Se40  1  0.633991  0.112491  0.639044  1
  Se  Se41  1  0.376715  0.831039  0.623347  1
  Se  Se42  1  0.362148  0.113494  0.379542  1
  Se  Se43  1  0.656781  0.870514  0.369249  1
  Se  Se44  1  0.622633  0.604374  0.154111  1
  Se  Se45  1  0.376233  0.322385  0.104034  1
  Se  Se46  1  0.364379  0.612507  0.887467  1
  Se  Se47  1  0.656689  0.355219  0.861780  1
  Se  Se48  1  0.253409  0.212751  0.769209  1
  Se  Se49  1  0.001362  0.923883  0.519083  1
  Se  Se50  1  0.517980  0.948848  0.971599  1
  Se  Se51  1  -0.000118  0.437690  0.009338  1
  Br  Br52  1  0.752272  0.742001  0.757048  1
  Br  Br53  1  0.702972  0.201692  0.201268  1
  Br  Br54  1  0.244948  0.757870  0.258568  1
  Br  Br55  1  0.482431  0.419792  0.540124  1
