# generated using pymatgen
data_Li7SiS5Cl
_symmetry_space_group_name_H-M   'P 1'
_cell_length_a   10.19262144
_cell_length_b   10.12458748
_cell_length_c   9.94272273
_cell_angle_alpha   90.23485982
_cell_angle_beta   88.79637721
_cell_angle_gamma   89.15776100
_symmetry_Int_Tables_number   1
_chemical_formula_structural   Li7SiS5Cl
_chemical_formula_sum   'Li28 Si4 S20 Cl4'
_cell_volume   1025.70289275
_cell_formula_units_Z   4
loop_
 _symmetry_equiv_pos_site_id
 _symmetry_equiv_pos_as_xyz
  1  'x, y, z'
loop_
 _atom_site_type_symbol
 _atom_site_label
 _atom_site_symmetry_multiplicity
 _atom_site_fract_x
 _atom_site_fract_y
 _atom_site_fract_z
 _atom_site_occupancy
  Li  Li0  1  0.026514  0.300628  0.806081  1
  Li  Li1  1  0.998544  0.779079  0.707606  1
  Li  Li2  1  0.989956  0.291074  0.191600  1
  Li  Li3  1  0.009708  0.796296  0.293967  1
  Li  Li4  1  0.844535  0.014966  0.280691  1
  Li  Li5  1  0.692618  0.983112  0.817357  1
  Li  Li6  1  0.198891  0.984936  0.317421  1
  Li  Li7  1  0.328139  0.798450  0.018359  1
  Li  Li8  1  0.631069  0.843551  0.102257  1
  Li  Li9  1  0.293354  0.140978  0.990336  1
  Li  Li10  1  0.835608  0.512062  0.804132  1
  Li  Li11  1  0.834029  0.590760  0.120493  1
  Li  Li12  1  0.328089  0.465277  0.675060  1
  Li  Li13  1  0.229415  0.204256  0.520065  1
  Li  Li14  1  0.678424  0.325050  0.491381  1
  Li  Li15  1  0.201665  0.772148  0.505760  1
  Li  Li16  1  0.377408  0.362729  0.330796  1
  Li  Li17  1  0.520736  0.675565  0.364862  1
  Li  Li18  1  0.497272  0.209372  0.802092  1
  Li  Li19  1  0.525331  0.749124  0.779327  1
  Li  Li20  1  0.218428  0.422716  0.942417  1
  Li  Li21  1  0.100292  0.540388  0.202141  1
  Li  Li22  1  0.865988  0.112278  0.592861  1
  Li  Li23  1  0.812895  0.790964  0.499034  1
  Li  Li24  1  0.529778  0.140279  0.154474  1
  Li  Li25  1  0.803763  0.287167  0.999575  1
  Li  Li26  1  0.343963  0.984210  0.776086  1
  Li  Li27  1  0.094027  0.041853  0.714912  1
  Si  Si28  1  0.006395  0.973384  0.990690  1
  Si  Si29  1  0.012747  0.479577  0.494416  1
  Si  Si30  1  0.518266  0.989018  0.482643  1
  Si  Si31  1  0.507173  0.483728  0.996279  1
  S  S32  1  0.104920  0.092078  0.130946  1
  S  S33  1  0.878364  0.847158  0.100290  1
  S  S34  1  0.895392  0.098345  0.857235  1
  S  S35  1  0.145483  0.866801  0.868154  1
  S  S36  1  0.122163  0.588766  0.634105  1
  S  S37  1  0.885475  0.356153  0.610437  1
  S  S38  1  0.899239  0.602034  0.364537  1
  S  S39  1  0.137798  0.362521  0.365081  1
  S  S40  1  0.627675  0.111609  0.613640  1
  S  S41  1  0.408834  0.844368  0.590977  1
  S  S42  1  0.390994  0.109632  0.365258  1
  S  S43  1  0.650227  0.882751  0.351544  1
  S  S44  1  0.598174  0.608283  0.137513  1
  S  S45  1  0.388444  0.337698  0.095392  1
  S  S46  1  0.371831  0.598067  0.880305  1
  S  S47  1  0.640557  0.385248  0.862822  1
  S  S48  1  0.255063  0.223899  0.756003  1
  S  S49  1  0.016154  0.945987  0.495573  1
  S  S50  1  0.494470  0.979089  0.960269  1
  S  S51  1  0.986480  0.446402  0.003381  1
  Cl  Cl52  1  0.763858  0.747610  0.735064  1
  Cl  Cl53  1  0.753641  0.227091  0.235491  1
  Cl  Cl54  1  0.236587  0.744787  0.254190  1
  Cl  Cl55  1  0.493152  0.474430  0.492401  1
