# generated using pymatgen
data_Li6Te5PBr
_symmetry_space_group_name_H-M   'P 1'
_cell_length_a   10.65221589
_cell_length_b   12.44685237
_cell_length_c   11.48039622
_cell_angle_alpha   90.00000000
_cell_angle_beta   90.00000000
_cell_angle_gamma   90.00000000
_symmetry_Int_Tables_number   1
_chemical_formula_structural   Li6Te5PBr
_chemical_formula_sum   'Li24 Te20 P4 Br4'
_cell_volume   1522.14622660
_cell_formula_units_Z   4
loop_
 _symmetry_equiv_pos_site_id
 _symmetry_equiv_pos_as_xyz
  1  'x, y, z'
loop_
 _atom_site_type_symbol
 _atom_site_label
 _atom_site_symmetry_multiplicity
 _atom_site_fract_x
 _atom_site_fract_y
 _atom_site_fract_z
 _atom_site_occupancy
  Br  Br0  1  0.000000  0.890421  0.500000  1
  Br  Br1  1  0.500000  0.609579  0.500000  1
  Br  Br2  1  0.250000  0.250000  0.773472  1
  Br  Br3  1  0.750000  0.250000  0.226528  1
  Li  Li4  1  0.994230  0.268659  0.806481  1
  Li  Li5  1  0.494230  0.231341  0.193519  1
  Li  Li6  1  0.000629  0.761609  0.684804  1
  Li  Li7  1  0.500629  0.738391  0.315196  1
  Li  Li8  1  0.005770  0.268659  0.193519  1
  Li  Li9  1  0.505770  0.231341  0.806481  1
  Li  Li10  1  0.999371  0.761609  0.315196  1
  Li  Li11  1  0.499371  0.738391  0.684804  1
  Li  Li12  1  0.671091  0.012910  0.150571  1
  Li  Li13  1  0.688317  0.540982  0.651195  1
  Li  Li14  1  0.811683  0.959018  0.651195  1
  Li  Li15  1  0.828909  0.487090  0.150571  1
  Li  Li16  1  0.188317  0.959018  0.348805  1
  Li  Li17  1  0.171091  0.487090  0.849429  1
  Li  Li18  1  0.328909  0.012910  0.849429  1
  Li  Li19  1  0.311683  0.540982  0.348805  1
  Li  Li20  1  0.250000  0.750000  0.047867  1
  Li  Li21  1  0.250000  0.250000  0.553639  1
  Li  Li22  1  0.750000  0.750000  0.952133  1
  Li  Li23  1  0.750000  0.250000  0.446361  1
  Li  Li24  1  0.250000  0.250000  0.002641  1
  Li  Li25  1  0.250000  0.750000  0.508614  1
  Li  Li26  1  0.750000  0.250000  0.997359  1
  Li  Li27  1  0.750000  0.750000  0.491386  1
  P  P28  1  0.000000  0.974177  0.000000  1
  P  P29  1  0.000000  0.480140  0.500000  1
  P  P30  1  0.500000  0.019860  0.500000  1
  P  P31  1  0.500000  0.525823  0.000000  1
  Te  Te32  1  0.147953  0.079403  0.129759  1
  Te  Te33  1  0.144158  0.582230  0.633461  1
  Te  Te34  1  0.643142  0.137084  0.622503  1
  Te  Te35  1  0.641261  0.644067  0.131422  1
  Te  Te36  1  0.858739  0.855933  0.131422  1
  Te  Te37  1  0.856858  0.362916  0.622503  1
  Te  Te38  1  0.355842  0.917770  0.633461  1
  Te  Te39  1  0.352047  0.420597  0.129759  1
  Te  Te40  1  0.852047  0.079403  0.870241  1
  Te  Te41  1  0.855842  0.582230  0.366539  1
  Te  Te42  1  0.356858  0.137084  0.377497  1
  Te  Te43  1  0.358739  0.644067  0.868578  1
  Te  Te44  1  0.141261  0.855933  0.868578  1
  Te  Te45  1  0.143142  0.362916  0.377497  1
  Te  Te46  1  0.644158  0.917770  0.366539  1
  Te  Te47  1  0.647953  0.420597  0.870241  1
  Te  Te48  1  0.000000  0.400081  0.000000  1
  Te  Te49  1  0.500000  0.099919  0.000000  1
  Te  Te50  1  0.750000  0.750000  0.724923  1
  Te  Te51  1  0.250000  0.750000  0.275077  1
