# generated using pymatgen
data_Li6PSe5Cl
_symmetry_space_group_name_H-M   'P 1'
_cell_length_a   10.64037805
_cell_length_b   10.64037805
_cell_length_c   10.64037805
_cell_angle_alpha   89.36668110
_cell_angle_beta   90.63331890
_cell_angle_gamma   90.63331890
_symmetry_Int_Tables_number   1
_chemical_formula_structural   Li6PSe5Cl
_chemical_formula_sum   'Li24 P4 Se20 Cl4'
_cell_volume   1204.45938036
_cell_formula_units_Z   4
loop_
 _symmetry_equiv_pos_site_id
 _symmetry_equiv_pos_as_xyz
  1  'x, y, z'
loop_
 _atom_site_type_symbol
 _atom_site_label
 _atom_site_symmetry_multiplicity
 _atom_site_fract_x
 _atom_site_fract_y
 _atom_site_fract_z
 _atom_site_occupancy
  Cl  Cl0  1  0.043413  -0.043413  0.456587  1
  Cl  Cl1  1  0.269079  0.264566  0.764566  1
  Cl  Cl2  1  0.735434  0.730921  0.764566  1
  Cl  Cl3  1  0.735434  0.264566  0.230921  1
  Li  Li4  1  0.019300  0.323649  0.823649  1
  Li  Li5  1  0.520895  0.213819  0.178073  1
  Li  Li6  1  0.019561  0.651491  0.836122  1
  Li  Li7  1  0.457637  0.768666  0.268666  1
  Li  Li8  1  0.019561  0.336122  0.151491  1
  Li  Li9  1  0.492582  0.247773  0.747773  1
  Li  Li10  1  0.000324  0.806389  0.306389  1
  Li  Li11  1  0.520895  0.678073  0.713819  1
  Li  Li12  1  0.663878  -0.019561  0.151491  1
  Li  Li13  1  0.752227  0.507418  0.747773  1
  Li  Li14  1  0.676351  -0.019300  0.823649  1
  Li  Li15  1  0.786181  0.479105  0.178073  1
  Li  Li16  1  0.193611  -0.000324  0.306389  1
  Li  Li17  1  0.321927  0.479105  0.713819  1
  Li  Li18  1  0.348509  -0.019561  0.836122  1
  Li  Li19  1  0.231334  0.542363  0.268666  1
  Li  Li20  1  0.231334  0.768666  0.042363  1
  Li  Li21  1  0.348509  0.336122  0.480439  1
  Li  Li22  1  0.786181  0.678073  0.979105  1
  Li  Li23  1  0.676351  0.323649  0.480700  1
  Li  Li24  1  0.321927  0.213819  0.979105  1
  Li  Li25  1  0.193611  0.806389  0.499676  1
  Li  Li26  1  0.752227  0.247773  0.007418  1
  Li  Li27  1  0.663878  0.651491  0.480439  1
  P  P28  1  -0.000006  0.000006  -0.015850  1
  P  P29  1  -0.000006  0.484150  0.500006  1
  P  P30  1  0.515850  0.000006  0.500006  1
  P  P31  1  0.482949  0.517051  0.017051  1
  Se  Se32  1  0.516340  0.483660  0.565250  1
  Se  Se33  1  -0.065250  0.483660  -0.016340  1
  Se  Se34  1  0.516340  0.065250  -0.016340  1
  Se  Se35  1  0.233874  0.766126  0.266126  1
  Se  Se36  1  0.123543  0.124809  0.100156  1
  Se  Se37  1  0.123543  0.600156  0.624809  1
  Se  Se38  1  0.645274  0.115046  0.615046  1
  Se  Se39  1  0.605483  0.638429  0.138429  1
  Se  Se40  1  0.875191  0.876457  0.100156  1
  Se  Se41  1  0.884954  0.354726  0.615046  1
  Se  Se42  1  0.399844  0.876457  0.624809  1
  Se  Se43  1  0.361571  0.394517  0.138429  1
  Se  Se44  1  0.884954  0.115046  0.854726  1
  Se  Se45  1  0.875191  0.600156  0.376457  1
  Se  Se46  1  0.399844  0.124809  0.376457  1
  Se  Se47  1  0.361571  0.638429  0.894517  1
  Se  Se48  1  0.121042  0.878958  0.865085  1
  Se  Se49  1  0.121042  0.365085  0.378958  1
  Se  Se50  1  0.634915  0.878958  0.378958  1
  Se  Se51  1  0.599797  0.400203  0.900203  1
