# generated using pymatgen
data_Li6PSe5Br
_symmetry_space_group_name_H-M   'P 1'
_cell_length_a   10.66541054
_cell_length_b   10.89842503
_cell_length_c   10.42935593
_cell_angle_alpha   90.00000000
_cell_angle_beta   90.00000000
_cell_angle_gamma   90.00000000
_symmetry_Int_Tables_number   1
_chemical_formula_structural   Li6PSe5Br
_chemical_formula_sum   'Li24 P4 Se20 Br4'
_cell_volume   1212.26846344
_cell_formula_units_Z   4
loop_
 _symmetry_equiv_pos_site_id
 _symmetry_equiv_pos_as_xyz
  1  'x, y, z'
loop_
 _atom_site_type_symbol
 _atom_site_label
 _atom_site_symmetry_multiplicity
 _atom_site_fract_x
 _atom_site_fract_y
 _atom_site_fract_z
 _atom_site_occupancy
  Br  Br0  1  0.000000  -0.028899  0.500000  1
  Br  Br1  1  0.500000  0.528899  0.500000  1
  Br  Br2  1  0.250000  0.250000  0.772939  1
  Br  Br3  1  0.750000  0.250000  0.227061  1
  Li  Li4  1  0.001387  0.287222  0.811991  1
  Li  Li5  1  0.501387  0.212778  0.188009  1
  Li  Li6  1  0.954955  0.855801  0.693957  1
  Li  Li7  1  0.454955  0.644199  0.306043  1
  Li  Li8  1  -0.001387  0.287222  0.188009  1
  Li  Li9  1  0.498613  0.212778  0.811991  1
  Li  Li10  1  0.045045  0.855801  0.306043  1
  Li  Li11  1  0.545045  0.644199  0.693957  1
  Li  Li12  1  0.678574  0.004023  0.159380  1
  Li  Li13  1  0.866737  0.551211  0.797400  1
  Li  Li14  1  0.633263  0.948789  0.797400  1
  Li  Li15  1  0.821426  0.495977  0.159380  1
  Li  Li16  1  0.366737  0.948789  0.202600  1
  Li  Li17  1  0.178574  0.495977  0.840620  1
  Li  Li18  1  0.321426  0.004023  0.840620  1
  Li  Li19  1  0.133263  0.551211  0.202600  1
  Li  Li20  1  0.250000  0.750000  0.028360  1
  Li  Li21  1  0.250000  0.250000  0.531468  1
  Li  Li22  1  0.750000  0.750000  0.971640  1
  Li  Li23  1  0.750000  0.250000  0.468532  1
  Li  Li24  1  0.250000  0.250000  0.016208  1
  Li  Li25  1  0.250000  0.750000  0.496304  1
  Li  Li26  1  0.750000  0.250000  -0.016208  1
  Li  Li27  1  0.750000  0.750000  0.503696  1
  P  P28  1  0.000000  -0.008419  0.000000  1
  P  P29  1  0.000000  0.499549  0.500000  1
  P  P30  1  0.500000  0.000451  0.500000  1
  P  P31  1  0.500000  0.508419  0.000000  1
  Se  Se32  1  0.000000  0.444386  0.000000  1
  Se  Se33  1  0.500000  0.055614  0.000000  1
  Se  Se34  1  0.750000  0.750000  0.742160  1
  Se  Se35  1  0.250000  0.750000  0.257840  1
  Se  Se36  1  0.119704  0.093600  0.138145  1
  Se  Se37  1  0.099303  0.618206  0.640417  1
  Se  Se38  1  0.625409  0.118536  0.618381  1
  Se  Se39  1  0.623209  0.623917  0.123744  1
  Se  Se40  1  0.876791  0.876083  0.123744  1
  Se  Se41  1  0.874591  0.381464  0.618381  1
  Se  Se42  1  0.400697  0.881794  0.640417  1
  Se  Se43  1  0.380296  0.406400  0.138145  1
  Se  Se44  1  0.880296  0.093600  0.861855  1
  Se  Se45  1  0.900697  0.618206  0.359583  1
  Se  Se46  1  0.374591  0.118536  0.381619  1
  Se  Se47  1  0.376791  0.623917  0.876256  1
  Se  Se48  1  0.123209  0.876083  0.876256  1
  Se  Se49  1  0.125409  0.381464  0.381619  1
  Se  Se50  1  0.599303  0.881794  0.359583  1
  Se  Se51  1  0.619704  0.406400  0.861855  1
