# generated using pymatgen
data_Li23P4S19Cl5
_symmetry_space_group_name_H-M   'P 1'
_cell_length_a   9.83057381
_cell_length_b   10.20521997
_cell_length_c   10.03821554
_cell_angle_alpha   90.68324590
_cell_angle_beta   93.35908655
_cell_angle_gamma   87.37726546
_symmetry_Int_Tables_number   1
_chemical_formula_structural   Li23P4S19Cl5
_chemical_formula_sum   'Li23 P4 S19 Cl5'
_cell_volume   1004.23912974
_cell_formula_units_Z   1
loop_
 _symmetry_equiv_pos_site_id
 _symmetry_equiv_pos_as_xyz
  1  'x, y, z'
loop_
 _atom_site_type_symbol
 _atom_site_label
 _atom_site_symmetry_multiplicity
 _atom_site_fract_x
 _atom_site_fract_y
 _atom_site_fract_z
 _atom_site_occupancy
  Cl  Cl1  1  0.240485  0.249106  0.756088  1
  Cl  Cl2  1  0.738666  0.746214  0.748855  1
  Cl  Cl3  1  0.248947  0.749403  0.241409  1
  Cl  Cl4  1  0.524864  0.550302  0.444828  1
  Cl  Cl5  1  0.017416  0.068658  0.464411  1
  Li  Li6  1  0.003152  0.315809  0.792810  1
  Li  Li7  1  0.506166  0.318074  0.295093  1
  Li  Li8  1  0.997266  0.694096  0.787003  1
  Li  Li9  1  0.486492  0.708637  0.270253  1
  Li  Li10  1  0.972653  0.211036  0.272146  1
  Li  Li11  1  0.494672  0.194221  0.788496  1
  Li  Li12  1  0.130418  0.541096  0.150288  1
  Li  Li13  1  0.501479  0.813424  0.792195  1
  Li  Li14  1  0.655257  0.051571  0.147613  1
  Li  Li15  1  0.780605  0.513087  0.775721  1
  Li  Li16  1  0.708437  0.982005  0.850454  1
  Li  Li17  1  0.733083  0.478152  0.316129  1
  Li  Li18  1  0.182524  0.967577  0.331081  1
  Li  Li19  1  0.204381  0.484624  0.848677  1
  Li  Li20  1  0.279308  0.013099  0.769743  1
  Li  Li21  1  0.303925  0.862338  0.025909  1
  Li  Li22  1  0.184380  0.224528  0.514370  1
  Li  Li23  1  0.831502  0.680634  0.012977  1
  Li  Li24  1  0.793727  0.180149  0.464630  1
  Li  Li25  1  0.328298  0.178626  0.017268  1
  Li  Li26  1  0.307678  0.664796  0.474661  1
  Li  Li27  1  0.796507  0.343396  0.032431  1
  Li  Li28  1  0.697671  0.722866  0.507131  1
  P  P29  1  0.990138  0.011000  0.986193  1
  P  P30  1  0.002521  0.510318  0.487438  1
  P  P31  1  0.497056  0.004694  0.483171  1
  P  P32  1  0.493160  0.513664  0.990560  1
  S  S33  1  0.129317  0.095752  0.119066  1
  S  S34  1  0.141719  0.591434  0.622482  1
  S  S35  1  0.630307  0.093712  0.616060  1
  S  S36  1  0.632647  0.606446  0.114326  1
  S  S37  1  0.856572  0.903982  0.082451  1
  S  S38  1  0.875871  0.392672  0.586886  1
  S  S39  1  0.371296  0.884226  0.581215  1
  S  S40  1  0.362144  0.406628  0.096240  1
  S  S41  1  0.873294  0.151716  0.882627  1
  S  S42  1  0.892634  0.651985  0.382977  1
  S  S43  1  0.371477  0.140540  0.380788  1
  S  S44  1  0.368748  0.651526  0.891329  1
  S  S45  1  0.100865  0.893599  0.859645  1
  S  S46  1  0.112745  0.399024  0.354995  1
  S  S47  1  0.608843  0.897173  0.351007  1
  S  S48  1  0.597781  0.395124  0.861588  1
  S  S49  1  0.733142  0.256953  0.242506  1
  S  S50  1  0.979364  0.508148  0.943862  1
  S  S51  1  0.478400  0.009049  0.939919  1
