# generated using pymatgen
data_Li6PSe5Cl
_symmetry_space_group_name_H-M   'P 1'
_cell_length_a   10.63522115
_cell_length_b   10.63522115
_cell_length_c   11.19049590
_cell_angle_alpha   90.00000000
_cell_angle_beta   90.00000000
_cell_angle_gamma   86.08253890
_symmetry_Int_Tables_number   1
_chemical_formula_structural   Li6PSe5Cl
_chemical_formula_sum   'Li24 P4 Se20 Cl4'
_cell_volume   1262.77643330
_cell_formula_units_Z   4
loop_
 _symmetry_equiv_pos_site_id
 _symmetry_equiv_pos_as_xyz
  1  'x, y, z'
loop_
 _atom_site_type_symbol
 _atom_site_label
 _atom_site_symmetry_multiplicity
 _atom_site_fract_x
 _atom_site_fract_y
 _atom_site_fract_z
 _atom_site_occupancy
  Cl  Cl0  1  0.000000  0.000000  0.384793  1
  Cl  Cl1  1  0.500000  0.500000  0.384793  1
  Cl  Cl2  1  0.250000  0.250000  0.753740  1
  Cl  Cl3  1  0.750000  0.750000  0.753740  1
  Li  Li4  1  0.006463  0.307501  0.800335  1
  Li  Li5  1  0.518370  0.292010  0.278532  1
  Li  Li6  1  -0.006463  0.692499  0.800335  1
  Li  Li7  1  0.481630  0.707990  0.278532  1
  Li  Li8  1  0.981630  0.207990  0.278532  1
  Li  Li9  1  0.493537  0.192499  0.800335  1
  Li  Li10  1  0.018370  0.792010  0.278532  1
  Li  Li11  1  0.506463  0.807501  0.800335  1
  Li  Li12  1  0.792010  0.018370  0.278532  1
  Li  Li13  1  0.807501  0.506463  0.800335  1
  Li  Li14  1  0.692499  -0.006463  0.800335  1
  Li  Li15  1  0.707990  0.481630  0.278532  1
  Li  Li16  1  0.207990  0.981630  0.278532  1
  Li  Li17  1  0.192499  0.493537  0.800335  1
  Li  Li18  1  0.307501  0.006463  0.800335  1
  Li  Li19  1  0.292010  0.518370  0.278532  1
  Li  Li20  1  0.250000  0.750000  0.028634  1
  Li  Li21  1  0.250000  0.250000  0.536081  1
  Li  Li22  1  0.750000  0.750000  0.969477  1
  Li  Li23  1  0.750000  0.250000  0.467518  1
  Li  Li24  1  0.250000  0.250000  0.969477  1
  Li  Li25  1  0.250000  0.750000  0.467518  1
  Li  Li26  1  0.750000  0.250000  0.028634  1
  Li  Li27  1  0.750000  0.750000  0.536081  1
  P  P28  1  0.000000  0.000000  -0.014268  1
  P  P29  1  0.000000  0.500000  0.491418  1
  P  P30  1  0.500000  0.000000  0.491418  1
  P  P31  1  0.500000  0.500000  -0.014268  1
  Se  Se32  1  0.000000  0.500000  -0.075726  1
  Se  Se33  1  0.500000  0.000000  -0.075726  1
  Se  Se34  1  0.750000  0.250000  0.250241  1
  Se  Se35  1  0.250000  0.750000  0.250241  1
  Se  Se36  1  0.118050  0.118050  0.097754  1
  Se  Se37  1  0.118476  0.618476  0.603533  1
  Se  Se38  1  0.618476  0.118476  0.603533  1
  Se  Se39  1  0.618050  0.618050  0.097754  1
  Se  Se40  1  0.881950  0.881950  0.097754  1
  Se  Se41  1  0.881524  0.381524  0.603533  1
  Se  Se42  1  0.381524  0.881524  0.603533  1
  Se  Se43  1  0.381950  0.381950  0.097754  1
  Se  Se44  1  0.877085  0.122915  0.867995  1
  Se  Se45  1  0.874453  0.625547  0.377030  1
  Se  Se46  1  0.374453  0.125547  0.377030  1
  Se  Se47  1  0.377085  0.622915  0.867995  1
  Se  Se48  1  0.122915  0.877085  0.867995  1
  Se  Se49  1  0.125547  0.374453  0.377030  1
  Se  Se50  1  0.625547  0.874453  0.377030  1
  Se  Se51  1  0.622915  0.377085  0.867995  1
