# generated using pymatgen
data_Li23P4S19Br5
_symmetry_space_group_name_H-M   'P 1'
_cell_length_a   10.01325466
_cell_length_b   10.19611766
_cell_length_c   10.08574594
_cell_angle_alpha   89.56260651
_cell_angle_beta   91.34631352
_cell_angle_gamma   89.68777620
_symmetry_Int_Tables_number   1
_chemical_formula_structural   Li23P4S19Br5
_chemical_formula_sum   'Li23 P4 S19 Br5'
_cell_volume   1029.38699849
_cell_formula_units_Z   1
loop_
 _symmetry_equiv_pos_site_id
 _symmetry_equiv_pos_as_xyz
  1  'x, y, z'
loop_
 _atom_site_type_symbol
 _atom_site_label
 _atom_site_symmetry_multiplicity
 _atom_site_fract_x
 _atom_site_fract_y
 _atom_site_fract_z
 _atom_site_occupancy
  Br  Br0  1  0.253926  0.251563  0.744484  1
  Br  Br1  1  0.751872  0.748819  0.742144  1
  Br  Br2  1  0.755613  0.244315  0.256759  1
  Br  Br3  1  0.024026  0.941545  0.986085  1
  Br  Br4  1  0.027187  0.498878  0.519046  1
  Li  Li5  1  0.989716  0.306708  0.687205  1
  Li  Li6  1  0.002550  0.788937  0.781221  1
  Li  Li7  1  0.998203  0.324087  0.319062  1
  Li  Li8  1  0.038352  0.787503  0.211179  1
  Li  Li9  1  0.705044  0.994808  0.302479  1
  Li  Li10  1  0.561240  0.931953  0.672660  1
  Li  Li11  1  0.295913  0.976534  0.293445  1
  Li  Li12  1  0.200236  0.014615  0.820439  1
  Li  Li13  1  0.245699  0.779439  0.019538  1
  Li  Li14  1  0.802839  0.812772  0.982943  1
  Li  Li15  1  0.310479  0.314990  0.998523  1
  Li  Li16  1  0.700249  0.287128  0.008354  1
  Li  Li17  1  0.580761  0.565199  0.806921  1
  Li  Li18  1  0.662743  0.521117  0.153715  1
  Li  Li19  1  0.222792  0.496900  0.697232  1
  Li  Li20  1  0.331562  0.531866  0.182755  1
  Li  Li21  1  0.330033  0.169407  0.510252  1
  Li  Li22  1  0.681710  0.180216  0.508902  1
  Li  Li23  1  0.215934  0.702434  0.469172  1
  Li  Li24  1  0.825799  0.666233  0.514108  1
  Li  Li25  1  0.501991  0.204428  0.275306  1
  Li  Li26  1  0.490450  0.799991  0.326200  1
  Li  Li27  1  0.504785  0.295192  0.807992  1
  P  P28  1  0.008998  0.997964  0.501916  1
  P  P29  1  0.505127  0.989779  0.990277  1
  P  P30  1  0.005541  0.498329  0.000965  1
  P  P31  1  0.510422  0.494259  0.497535  1
  S  S32  1  0.118125  0.118664  0.381165  1
  S  S33  1  0.896979  0.868856  0.388655  1
  S  S34  1  0.887425  0.102014  0.621900  1
  S  S35  1  0.143845  0.888791  0.615423  1
  S  S36  1  0.371846  0.100436  0.094880  1
  S  S37  1  0.398643  0.874725  0.859549  1
  S  S38  1  0.616453  0.870079  0.116381  1
  S  S39  1  0.631363  0.096632  0.874716  1
  S  S40  1  0.127838  0.392213  0.129718  1
  S  S41  1  0.886852  0.382575  0.886594  1
  S  S42  1  0.131061  0.608245  0.884500  1
  S  S43  1  0.886551  0.618738  0.113346  1
  S  S44  1  0.407452  0.622230  0.615670  1
  S  S45  1  0.381859  0.383972  0.384473  1
  S  S46  1  0.630398  0.384092  0.623314  1
  S  S47  1  0.631108  0.604885  0.377179  1
  S  S48  1  0.268916  0.749856  0.250327  1
  S  S49  1  0.510004  0.022625  0.447210  1
  S  S50  1  0.508008  0.442464  0.996187  1
