# generated using pymatgen
data_Li7GeSe5Br
_symmetry_space_group_name_H-M   'P 1'
_cell_length_a   10.82713370
_cell_length_b   10.78721413
_cell_length_c   10.80935276
_cell_angle_alpha   91.14672694
_cell_angle_beta   89.39358898
_cell_angle_gamma   88.32187788
_symmetry_Int_Tables_number   1
_chemical_formula_structural   Li7GeSe5Br
_chemical_formula_sum   'Li28 Ge4 Se20 Br4'
_cell_volume   1261.60113734
_cell_formula_units_Z   4
loop_
 _symmetry_equiv_pos_site_id
 _symmetry_equiv_pos_as_xyz
  1  'x, y, z'
loop_
 _atom_site_type_symbol
 _atom_site_label
 _atom_site_symmetry_multiplicity
 _atom_site_fract_x
 _atom_site_fract_y
 _atom_site_fract_z
 _atom_site_occupancy
  Li  Li0  1  0.025838  0.306153  0.793977  1
  Li  Li1  1  0.994053  0.700633  0.798564  1
  Li  Li2  1  0.012713  0.197861  0.319990  1
  Li  Li3  1  0.027926  0.811818  0.281488  1
  Li  Li4  1  0.828642  0.009973  0.331625  1
  Li  Li5  1  0.715254  0.988053  0.791123  1
  Li  Li6  1  0.211900  0.002698  0.303293  1
  Li  Li7  1  0.311703  0.811598  0.005426  1
  Li  Li8  1  0.752616  0.758545  0.976359  1
  Li  Li9  1  0.212083  0.309827  0.982722  1
  Li  Li10  1  0.755593  0.519638  0.734622  1
  Li  Li11  1  0.723679  0.489894  0.287223  1
  Li  Li12  1  0.234874  0.491320  0.776944  1
  Li  Li13  1  0.217445  0.200348  0.530567  1
  Li  Li14  1  0.723749  0.286271  0.490374  1
  Li  Li15  1  0.208582  0.818596  0.500148  1
  Li  Li16  1  0.397389  0.119636  0.136852  1
  Li  Li17  1  0.534246  0.832712  0.181862  1
  Li  Li18  1  0.487967  0.328005  0.676487  1
  Li  Li19  1  0.530377  0.801156  0.812758  1
  Li  Li20  1  0.398107  0.377861  0.342054  1
  Li  Li21  1  0.068156  0.501994  0.193685  1
  Li  Li22  1  0.588844  0.714951  0.554323  1
  Li  Li23  1  0.863206  0.802362  0.519855  1
  Li  Li24  1  0.474507  0.216830  0.908951  1
  Li  Li25  1  0.728116  0.091717  0.053939  1
  Li  Li26  1  0.327685  0.019532  0.796927  1
  Li  Li27  1  0.016616  0.011694  0.696859  1
  Ge  Ge28  1  0.018605  0.008756  0.995568  1
  Ge  Ge29  1  0.025258  0.502959  0.495031  1
  Ge  Ge30  1  0.522944  0.002661  0.500313  1
  Ge  Ge31  1  0.518378  0.501566  0.989379  1
  Se  Se32  1  0.143654  0.136099  0.123252  1
  Se  Se33  1  0.878293  0.895662  0.119703  1
  Se  Se34  1  0.887320  0.132110  0.868451  1
  Se  Se35  1  0.140636  0.879883  0.857631  1
  Se  Se36  1  0.137954  0.637564  0.622166  1
  Se  Se37  1  0.899042  0.372229  0.612019  1
  Se  Se38  1  0.910736  0.620115  0.345534  1
  Se  Se39  1  0.158458  0.371198  0.369215  1
  Se  Se40  1  0.631886  0.135141  0.633018  1
  Se  Se41  1  0.403051  0.864710  0.620056  1
  Se  Se42  1  0.391500  0.129035  0.374600  1
  Se  Se43  1  0.658648  0.864824  0.382522  1
  Se  Se44  1  0.639045  0.625361  0.122890  1
  Se  Se45  1  0.396798  0.360639  0.107061  1
  Se  Se46  1  0.388927  0.631649  0.869841  1
  Se  Se47  1  0.640618  0.367538  0.858637  1
  Se  Se48  1  0.269610  0.251682  0.756761  1
  Se  Se49  1  0.761499  0.754983  0.739315  1
  Se  Se50  1  0.031203  0.987492  0.460343  1
  Se  Se51  1  0.517352  0.983341  0.981959  1
  Br  Br52  1  0.781963  0.238640  0.263803  1
  Br  Br53  1  0.267086  0.779972  0.240351  1
  Br  Br54  1  0.046335  0.491511  0.957114  1
  Br  Br55  1  0.561333  0.476782  0.480248  1
