# generated using pymatgen
data_Li7SiS5I
_symmetry_space_group_name_H-M   'P 1'
_cell_length_a   10.27458415
_cell_length_b   10.35417371
_cell_length_c   10.42906925
_cell_angle_alpha   91.19488448
_cell_angle_beta   89.03498355
_cell_angle_gamma   90.35327539
_symmetry_Int_Tables_number   1
_chemical_formula_structural   Li7SiS5I
_chemical_formula_sum   'Li28 Si4 S20 I4'
_cell_volume   1109.07739583
_cell_formula_units_Z   4
loop_
 _symmetry_equiv_pos_site_id
 _symmetry_equiv_pos_as_xyz
  1  'x, y, z'
loop_
 _atom_site_type_symbol
 _atom_site_label
 _atom_site_symmetry_multiplicity
 _atom_site_fract_x
 _atom_site_fract_y
 _atom_site_fract_z
 _atom_site_occupancy
  Li  Li0  1  0.012240  0.291931  0.786447  1
  Li  Li1  1  -0.009223  0.704322  0.823738  1
  Li  Li2  1  0.018059  0.268491  0.210713  1
  Li  Li3  1  0.918039  0.841766  0.313261  1
  Li  Li4  1  0.812314  0.045724  0.472618  1
  Li  Li5  1  0.713864  0.976331  0.776178  1
  Li  Li6  1  0.180173  0.004678  0.306841  1
  Li  Li7  1  0.329591  0.808036  0.980387  1
  Li  Li8  1  0.722886  0.768433  0.962907  1
  Li  Li9  1  0.222209  0.276470  0.971836  1
  Li  Li10  1  0.750448  0.509655  0.741900  1
  Li  Li11  1  0.792822  0.503298  0.188081  1
  Li  Li12  1  0.262616  0.474043  0.719300  1
  Li  Li13  1  0.218560  0.214298  0.515027  1
  Li  Li14  1  0.704232  0.309893  0.497683  1
  Li  Li15  1  0.203980  0.809305  0.521929  1
  Li  Li16  1  0.480599  0.280977  0.294273  1
  Li  Li17  1  0.538086  0.848186  0.171502  1
  Li  Li18  1  0.477248  0.278080  0.704177  1
  Li  Li19  1  0.530053  0.771761  0.787697  1
  Li  Li20  1  0.435763  0.552250  0.248550  1
  Li  Li21  1  0.086907  0.562876  0.240214  1
  Li  Li22  1  0.633710  0.727842  0.532819  1
  Li  Li23  1  0.928067  0.766367  0.569126  1
  Li  Li24  1  0.519472  0.192643  0.995807  1
  Li  Li25  1  0.751477  0.033172  0.044396  1
  Li  Li26  1  0.345331  0.014165  0.785212  1
  Li  Li27  1  0.064301  0.033714  0.700387  1
  Si  Si28  1  0.025150  0.988119  0.981643  1
  Si  Si29  1  0.004640  0.490699  0.497989  1
  Si  Si30  1  0.516487  0.994303  0.489274  1
  Si  Si31  1  0.504596  0.490596  0.980188  1
  S  S32  1  0.140752  0.105599  0.105298  1
  S  S33  1  0.900707  0.859010  0.085073  1
  S  S34  1  0.899519  0.101817  0.866671  1
  S  S35  1  0.150847  0.880422  0.853010  1
  S  S36  1  0.109257  0.618225  0.624174  1
  S  S37  1  0.887406  0.366980  0.612179  1
  S  S38  1  0.889009  0.610301  0.376247  1
  S  S39  1  0.134401  0.383486  0.375462  1
  S  S40  1  0.631015  0.120222  0.609754  1
  S  S41  1  0.417044  0.859134  0.607837  1
  S  S42  1  0.382073  0.100619  0.381310  1
  S  S43  1  0.654624  0.890707  0.368972  1
  S  S44  1  0.614359  0.616600  0.107081  1
  S  S45  1  0.389335  0.368381  0.105758  1
  S  S46  1  0.383914  0.606616  0.868224  1
  S  S47  1  0.622244  0.361760  0.869346  1
  S  S48  1  0.245495  0.234523  0.743479  1
  S  S49  1  0.761372  0.740765  0.734991  1
  S  S50  1  0.027507  0.963704  0.482101  1
  S  S51  1  0.539405  0.955974  0.961129  1
  I  I52  1  0.749209  0.236984  0.238779  1
  I  I53  1  0.270485  0.755577  0.240055  1
  I  I54  1  0.004974  0.476289  0.000654  1
  I  I55  1  0.500350  0.479660  0.496099  1
