# generated using pymatgen
data_Li7GeSe5Br
_symmetry_space_group_name_H-M   'P 1'
_cell_length_a   10.83177740
_cell_length_b   10.76257672
_cell_length_c   10.76257672
_cell_angle_alpha   89.55613199
_cell_angle_beta   88.92469920
_cell_angle_gamma   88.92469920
_symmetry_Int_Tables_number   1
_chemical_formula_structural   Li7GeSe5Br
_chemical_formula_sum   'Li28 Ge4 Se20 Br4'
_cell_volume   1254.20170757
_cell_formula_units_Z   4
loop_
 _symmetry_equiv_pos_site_id
 _symmetry_equiv_pos_as_xyz
  1  'x, y, z'
loop_
 _atom_site_type_symbol
 _atom_site_label
 _atom_site_symmetry_multiplicity
 _atom_site_fract_x
 _atom_site_fract_y
 _atom_site_fract_z
 _atom_site_occupancy
  Li  Li0  1  0.033786  0.304926  0.783880  1
  Li  Li1  1  0.009233  0.779828  0.671730  1
  Li  Li2  1  0.009233  0.279828  0.171730  1
  Li  Li3  1  0.033786  0.804926  0.283880  1
  Li  Li4  1  0.833086  0.006266  0.309632  1
  Li  Li5  1  0.714814  0.984585  0.787128  1
  Li  Li6  1  0.149226  0.092112  0.359930  1
  Li  Li7  1  0.333086  0.809632  0.006266  1
  Li  Li8  1  0.649226  0.859930  0.092112  1
  Li  Li9  1  0.214814  0.287128  0.984585  1
  Li  Li10  1  0.833086  0.506266  0.809632  1
  Li  Li11  1  0.714814  0.484585  0.287128  1
  Li  Li12  1  0.149226  0.592112  0.859930  1
  Li  Li13  1  0.333086  0.309632  0.506266  1
  Li  Li14  1  0.649226  0.359930  0.592112  1
  Li  Li15  1  0.214814  0.787128  0.484585  1
  Li  Li16  1  0.533786  0.283880  0.304926  1
  Li  Li17  1  0.509233  0.671730  0.279828  1
  Li  Li18  1  0.509233  0.171730  0.779828  1
  Li  Li19  1  0.533786  0.783880  0.804926  1
  Li  Li20  1  0.328046  0.477800  0.294021  1
  Li  Li21  1  0.066640  0.538831  0.182586  1
  Li  Li22  1  0.566640  0.682586  0.538831  1
  Li  Li23  1  0.828046  0.794021  0.477800  1
  Li  Li24  1  0.566640  0.182586  0.038831  1
  Li  Li25  1  0.828046  0.294021  0.977800  1
  Li  Li26  1  0.328046  0.977800  0.794021  1
  Li  Li27  1  0.066640  0.038831  0.682586  1
  Ge  Ge28  1  0.012481  0.985721  0.991847  1
  Ge  Ge29  1  0.012481  0.485721  0.491847  1
  Ge  Ge30  1  0.512481  0.991847  0.485721  1
  Ge  Ge31  1  0.512481  0.491847  0.985721  1
  Se  Se32  1  0.150162  0.097519  0.115429  1
  Se  Se33  1  0.883660  0.862682  0.118586  1
  Se  Se34  1  0.902510  0.109892  0.843515  1
  Se  Se35  1  0.137979  0.854356  0.855575  1
  Se  Se36  1  0.150162  0.597519  0.615429  1
  Se  Se37  1  0.883660  0.362682  0.618586  1
  Se  Se38  1  0.902510  0.609892  0.343515  1
  Se  Se39  1  0.137979  0.354356  0.355575  1
  Se  Se40  1  0.650162  0.115429  0.597519  1
  Se  Se41  1  0.402510  0.843515  0.609892  1
  Se  Se42  1  0.383660  0.118586  0.362682  1
  Se  Se43  1  0.637979  0.855575  0.354356  1
  Se  Se44  1  0.650162  0.615429  0.097519  1
  Se  Se45  1  0.402510  0.343515  0.109892  1
  Se  Se46  1  0.383660  0.618586  0.862682  1
  Se  Se47  1  0.637979  0.355575  0.854356  1
  Se  Se48  1  0.018022  0.935418  0.478438  1
  Se  Se49  1  0.518022  0.978438  0.935418  1
  Se  Se50  1  0.018022  0.435418  0.978438  1
  Se  Se51  1  0.518022  0.478438  0.435418  1
  Br  Br52  1  0.260355  0.207040  0.733617  1
  Br  Br53  1  0.760355  0.733617  0.707040  1
  Br  Br54  1  0.760355  0.233617  0.207040  1
  Br  Br55  1  0.260355  0.707040  0.233617  1
