# generated using pymatgen
data_Li5P(S2Cl)2
_symmetry_space_group_name_H-M   'P 1'
_cell_length_a   10.55751539
_cell_length_b   9.88745921
_cell_length_c   9.78634341
_cell_angle_alpha   85.39865943
_cell_angle_beta   88.70861763
_cell_angle_gamma   87.77985242
_symmetry_Int_Tables_number   1
_chemical_formula_structural   Li5P(S2Cl)2
_chemical_formula_sum   'Li20 P4 S16 Cl8'
_cell_volume   1017.31658058
_cell_formula_units_Z   4
loop_
 _symmetry_equiv_pos_site_id
 _symmetry_equiv_pos_as_xyz
  1  'x, y, z'
loop_
 _atom_site_type_symbol
 _atom_site_label
 _atom_site_symmetry_multiplicity
 _atom_site_fract_x
 _atom_site_fract_y
 _atom_site_fract_z
 _atom_site_occupancy
  Cl  Cl1  1  0.755243  0.223686  0.273553  1
  Cl  Cl2  1  0.244864  0.770952  0.244797  1
  Cl  Cl3  1  -0.088405  -0.054421  0.494450  1
  Cl  Cl4  1  0.412344  -0.006866  -0.030033  1
  Cl  Cl5  1  -0.088405  0.445579  -0.005550  1
  Cl  Cl6  1  0.412344  0.493134  0.469967  1
  Cl  Cl7  1  0.244864  0.270952  0.744797  1
  Cl  Cl8  1  0.755243  0.723686  0.773553  1
  Li  Li9  1  0.021340  0.273121  0.857936  1
  Li  Li10  1  0.962828  0.804001  0.702089  1
  Li  Li11  1  0.962828  0.304001  0.202089  1
  Li  Li12  1  0.021340  0.773121  0.357936  1
  Li  Li13  1  0.773633  -0.017077  0.282100  1
  Li  Li14  1  0.296022  0.016919  0.191633  1
  Li  Li15  1  0.262511  0.028314  0.777563  1
  Li  Li16  1  0.281434  0.786668  0.001127  1
  Li  Li17  1  0.801062  0.662644  0.028490  1
  Li  Li18  1  0.401726  0.231858  0.921622  1
  Li  Li19  1  0.750684  0.269902  0.027506  1
  Li  Li20  1  0.773633  0.482923  0.782100  1
  Li  Li21  1  0.296022  0.516919  0.691633  1
  Li  Li22  1  0.262511  0.528314  0.277563  1
  Li  Li23  1  0.281434  0.286668  0.501127  1
  Li  Li24  1  0.801062  0.162644  0.528490  1
  Li  Li25  1  0.401726  0.731858  0.421622  1
  Li  Li26  1  0.750684  0.769902  0.527506  1
  Li  Li27  1  0.532596  0.364011  0.284790  1
  Li  Li28  1  0.532596  0.864011  0.784790  1
  P  P29  1  -0.015586  -0.011719  0.000521  1
  P  P30  1  -0.015586  0.488281  0.500521  1
  P  P31  1  0.490105  0.002607  0.492163  1
  P  P32  1  0.490105  0.502607  -0.007837  1
  S  S33  1  0.093637  0.122609  0.091912  1
  S  S34  1  0.906719  0.845903  0.139610  1
  S  S35  1  0.847228  0.094261  0.890530  1
  S  S36  1  0.099981  0.880100  0.870032  1
  S  S37  1  0.093637  0.622609  0.591912  1
  S  S38  1  0.906719  0.345903  0.639610  1
  S  S39  1  0.847228  0.594261  0.390530  1
  S  S40  1  0.099981  0.380100  0.370032  1
  S  S41  1  0.598623  0.077428  0.634040  1
  S  S42  1  0.348097  0.895027  0.594524  1
  S  S43  1  0.409933  0.148679  0.354337  1
  S  S44  1  0.586722  0.864735  0.374707  1
  S  S45  1  0.598623  0.577428  0.134040  1
  S  S46  1  0.348097  0.395027  0.094524  1
  S  S47  1  0.409933  0.648679  0.854337  1
  S  S48  1  0.586722  0.364735  0.874707  1
