data_Li22P4S18Cl6_c00010_contcar
_audit_creation_date              2019-05-12
_audit_creation_method            'Materials Studio'
_symmetry_space_group_name_H-M    'P1'
_symmetry_Int_Tables_number       1
_symmetry_cell_setting            triclinic
loop_
_symmetry_equiv_pos_as_xyz
  x,y,z
_cell_length_a                    10.2433
_cell_length_b                    10.2433
_cell_length_c                    9.9881
_cell_angle_alpha                 87.8162
_cell_angle_beta                  87.8162
_cell_angle_gamma                 87.3683
loop_
_atom_site_label
_atom_site_type_symbol
_atom_site_fract_x
_atom_site_fract_y
_atom_site_fract_z
_atom_site_U_iso_or_equiv
_atom_site_adp_type
_atom_site_occupancy
Cl1    Cl    0.74964   0.25345   0.25926   0.00000  Uiso   1.00
Cl2    Cl    0.25345   0.74964   0.25926   0.00000  Uiso   1.00
Cl3    Cl    0.93508   0.93508   0.50463   0.00000  Uiso   1.00
Cl4    Cl    0.42716   0.95195   0.97926   0.00000  Uiso   1.00
Cl5    Cl    0.95195   0.42716   0.97926   0.00000  Uiso   1.00
Cl6    Cl    0.48100   0.48100   0.44894   0.00000  Uiso   1.00
Li7    Li    0.01141   0.27445   0.80096   0.00000  Uiso   1.00
Li8    Li    0.97812   0.77802   0.71020   0.00000  Uiso   1.00
Li9    Li    0.97763   0.31611   0.19362   0.00000  Uiso   1.00
Li10   Li    0.02040   0.78830   0.32913   0.00000  Uiso   1.00
Li11   Li    0.78830   0.02039   0.32913   0.00000  Uiso   1.00
Li12   Li    0.77802   0.97812   0.71020   0.00000  Uiso   1.00
Li13   Li    0.31611   0.97763   0.19362   0.00000  Uiso   1.00
Li14   Li    0.27445   0.01141   0.80096   0.00000  Uiso   1.00
Li15   Li    0.28782   0.76783   0.01757   0.00000  Uiso   1.00
Li16   Li    0.74982   0.74982   0.99575   0.00000  Uiso   1.00
Li17   Li    0.24234   0.24234   0.98402   0.00000  Uiso   1.00
Li18   Li    0.76783   0.28782   0.01757   0.00000  Uiso   1.00
Li19   Li    0.79094   0.52130   0.79789   0.00000  Uiso   1.00
Li20   Li    0.24614   0.47141   0.73652   0.00000  Uiso   1.00
Li21   Li    0.29596   0.51278   0.29070   0.00000  Uiso   1.00
Li22   Li    0.21969   0.21969   0.52408   0.00000  Uiso   1.00
Li23   Li    0.71741   0.42417   0.43935   0.00000  Uiso   1.00
Li24   Li    0.42417   0.71741   0.43935   0.00000  Uiso   1.00
Li25   Li    0.76343   0.76343   0.52436   0.00000  Uiso   1.00
Li26   Li    0.51278   0.29596   0.29070   0.00000  Uiso   1.00
Li27   Li    0.47141   0.24614   0.73652   0.00000  Uiso   1.00
Li28   Li    0.52130   0.79094   0.79789   0.00000  Uiso   1.00
P29    P     0.98859   0.98859   0.01030   0.00000  Uiso   1.00
P30    P     0.99634   0.49344   0.49555   0.00000  Uiso   1.00
P31    P     0.49344   0.99634   0.49555   0.00000  Uiso   1.00
P32    P     0.49363   0.49363   0.98737   0.00000  Uiso   1.00
S33    S     0.10168   0.10168   0.12433   0.00000  Uiso   1.00
S34    S     0.87806   0.87806   0.14272   0.00000  Uiso   1.00
S35    S     0.86734   0.10347   0.89098   0.00000  Uiso   1.00
S36    S     0.10347   0.86734   0.89098   0.00000  Uiso   1.00
S37    S     0.11405   0.61180   0.59263   0.00000  Uiso   1.00
S38    S     0.88109   0.37655   0.61732   0.00000  Uiso   1.00
S39    S     0.87128   0.60048   0.37386   0.00000  Uiso   1.00
S40    S     0.11549   0.37643   0.37282   0.00000  Uiso   1.00
S41    S     0.61180   0.11405   0.59263   0.00000  Uiso   1.00
S42    S     0.37655   0.88109   0.61732   0.00000  Uiso   1.00
S43    S     0.37643   0.11549   0.37282   0.00000  Uiso   1.00
S44    S     0.60048   0.87128   0.37386   0.00000  Uiso   1.00
S45    S     0.59813   0.59813   0.10665   0.00000  Uiso   1.00
S46    S     0.37508   0.37508   0.10911   0.00000  Uiso   1.00
S47    S     0.37444   0.60916   0.86422   0.00000  Uiso   1.00
S48    S     0.60916   0.37444   0.86422   0.00000  Uiso   1.00
S49    S     0.24215   0.24215   0.75277   0.00000  Uiso   1.00
S50    S     0.75092   0.75092   0.76129   0.00000  Uiso   1.00
loop_
_geom_bond_atom_site_label_1
_geom_bond_atom_site_label_2
_geom_bond_distance
_geom_bond_site_symmetry_2
_ccdc_geom_bond_type
P29    S33     2.075   1_665 S
P29    S34     2.050   .     S
P29    S35     2.054   1_564 S
P29    S36     2.054   1_654 D
P30    S37     2.044   1_655 S
P30    S38     2.053   .     S
P30    S39     2.052   .     S
P30    S40     2.072   1_655 D
P31    S41     2.044   1_565 S
P31    S42     2.053   .     S
P31    S43     2.072   1_565 S
P31    S44     2.052   .     D
P32    S45     2.003   1_556 S
P32    S46     2.083   1_556 S
P32    S47     2.068   .     S
P32    S48     2.068   .     D
S33    P29     2.075   1_445 S
S35    P29     2.054   1_546 S
S36    P29     2.054   1_456 D
S37    P30     2.044   1_455 S
S40    P30     2.072   1_455 D
S41    P31     2.044   1_545 S
S43    P31     2.072   1_545 S
S45    P32     2.003   1_554 S
S46    P32     2.083   1_554 S
