# generated using pymatgen
data_Li7SiSe5Cl
_symmetry_space_group_name_H-M   'P 1'
_cell_length_a   10.61660394
_cell_length_b   11.00358232
_cell_length_c   10.26453865
_cell_angle_alpha   91.17878553
_cell_angle_beta   86.13645764
_cell_angle_gamma   90.58275835
_symmetry_Int_Tables_number   1
_chemical_formula_structural   Li7SiSe5Cl
_chemical_formula_sum   'Li28 Si4 Se20 Cl4'
_cell_volume   1196.08560997
_cell_formula_units_Z   4
loop_
 _symmetry_equiv_pos_site_id
 _symmetry_equiv_pos_as_xyz
  1  'x, y, z'
loop_
 _atom_site_type_symbol
 _atom_site_label
 _atom_site_symmetry_multiplicity
 _atom_site_fract_x
 _atom_site_fract_y
 _atom_site_fract_z
 _atom_site_occupancy
  Li  Li0  1  0.019117  0.254518  0.785632  1
  Li  Li1  1  0.969149  0.803492  0.703847  1
  Li  Li2  1  0.975481  0.293743  0.204293  1
  Li  Li3  1  0.009257  0.786628  0.287338  1
  Li  Li4  1  0.840762  0.014360  0.258682  1
  Li  Li5  1  0.668466  0.973746  0.809264  1
  Li  Li6  1  0.183744  0.002259  0.327708  1
  Li  Li7  1  0.294791  0.784008  0.007070  1
  Li  Li8  1  0.676206  0.772522  0.989833  1
  Li  Li9  1  0.197810  0.261173  0.997778  1
  Li  Li10  1  0.893783  0.494589  0.782207  1
  Li  Li11  1  0.833623  0.555708  0.115964  1
  Li  Li12  1  0.196546  0.453260  0.801243  1
  Li  Li13  1  0.316431  0.287575  0.515434  1
  Li  Li14  1  0.655920  0.358957  0.594010  1
  Li  Li15  1  0.190108  0.765895  0.497368  1
  Li  Li16  1  0.550747  0.292866  0.299146  1
  Li  Li17  1  0.485713  0.810463  0.204803  1
  Li  Li18  1  0.475575  0.254058  0.813931  1
  Li  Li19  1  0.497668  0.757901  0.770910  1
  Li  Li20  1  0.388977  0.497063  0.284872  1
  Li  Li21  1  0.103056  0.540969  0.178323  1
  Li  Li22  1  0.859593  0.089991  0.593241  1
  Li  Li23  1  0.794329  0.775838  0.495118  1
  Li  Li24  1  0.533777  0.092323  0.135079  1
  Li  Li25  1  0.799612  0.277755  0.986180  1
  Li  Li26  1  0.344481  0.007179  0.822724  1
  Li  Li27  1  0.166809  0.015233  0.649950  1
  Si  Si28  1  0.995522  0.969375  0.986048  1
  Si  Si29  1  0.015054  0.476377  0.482748  1
  Si  Si30  1  0.509645  0.997199  0.490395  1
  Si  Si31  1  0.508322  0.485314  0.988231  1
  Se  Se32  1  0.084566  0.092832  0.137784  1
  Se  Se33  1  0.876426  0.826430  0.097806  1
  Se  Se34  1  0.871156  0.082478  0.858874  1
  Se  Se35  1  0.141182  0.871037  0.852809  1
  Se  Se36  1  0.089755  0.597527  0.644572  1
  Se  Se37  1  0.895700  0.328785  0.589231  1
  Se  Se38  1  0.893281  0.589471  0.354619  1
  Se  Se39  1  0.165828  0.386126  0.344869  1
  Se  Se40  1  0.612118  0.120498  0.634753  1
  Se  Se41  1  0.374355  0.870809  0.606301  1
  Se  Se42  1  0.393963  0.110104  0.356393  1
  Se  Se43  1  0.648993  0.891066  0.356632  1
  Se  Se44  1  0.594324  0.600125  0.149517  1
  Se  Se45  1  0.414984  0.319680  0.092327  1
  Se  Se46  1  0.364926  0.590573  0.882095  1
  Se  Se47  1  0.662665  0.408649  0.843487  1
  Se  Se48  1  0.251764  0.220480  0.749229  1
  Se  Se49  1  0.005139  0.927804  0.488478  1
  Se  Se50  1  0.494877  0.920193  0.980775  1
  Se  Se51  1  0.001409  0.421538  0.989989  1
  Cl  Cl52  1  0.735425  0.763774  0.734985  1
  Cl  Cl53  1  0.744247  0.213028  0.206489  1
  Cl  Cl54  1  0.238427  0.741965  0.245008  1
  Cl  Cl55  1  0.494417  0.428471  0.469387  1
