# generated using pymatgen
data_Li6PSe5Cl
_symmetry_space_group_name_H-M   'P 1'
_cell_length_a   10.73953644
_cell_length_b   10.73953644
_cell_length_c   10.73953644
_cell_angle_alpha   88.13308785
_cell_angle_beta   91.86691215
_cell_angle_gamma   88.13308785
_symmetry_Int_Tables_number   1
_chemical_formula_structural   Li6PSe5Cl
_chemical_formula_sum   'Li24 P4 Se20 Cl4'
_cell_volume   1236.65639468
_cell_formula_units_Z   4
loop_
 _symmetry_equiv_pos_site_id
 _symmetry_equiv_pos_as_xyz
  1  'x, y, z'
loop_
 _atom_site_type_symbol
 _atom_site_label
 _atom_site_symmetry_multiplicity
 _atom_site_fract_x
 _atom_site_fract_y
 _atom_site_fract_z
 _atom_site_occupancy
  Cl  Cl0  1  0.025338  0.158292  0.525338  1
  Cl  Cl1  1  0.341708  0.474662  0.525338  1
  Cl  Cl2  1  0.025338  0.474662  -0.158292  1
  Cl  Cl3  1  0.273460  0.226540  0.773460  1
  Li  Li4  1  -0.002954  0.280938  0.719062  1
  Li  Li5  1  0.523541  0.207742  0.220568  1
  Li  Li6  1  0.983345  0.701238  0.795256  1
  Li  Li7  1  0.498408  0.774876  0.225124  1
  Li  Li8  1  0.983345  0.204744  0.298762  1
  Li  Li9  1  0.492551  0.191162  0.808838  1
  Li  Li10  1  0.049711  0.741996  0.258004  1
  Li  Li11  1  0.523541  0.779432  0.792258  1
  Li  Li12  1  0.725124  0.001592  0.225124  1
  Li  Li13  1  0.798762  0.516655  0.795256  1
  Li  Li14  1  0.720568  0.976459  0.792258  1
  Li  Li15  1  0.758004  0.450289  0.258004  1
  Li  Li16  1  0.292258  0.976459  0.220568  1
  Li  Li17  1  0.219062  0.502954  0.719062  1
  Li  Li18  1  0.308838  0.007449  0.808838  1
  Li  Li19  1  0.295256  0.516655  0.298762  1
  Li  Li20  1  0.292258  0.779432  0.023541  1
  Li  Li21  1  0.219062  0.280938  0.497046  1
  Li  Li22  1  0.725124  0.774876  -0.001592  1
  Li  Li23  1  0.798762  0.204744  0.483345  1
  Li  Li24  1  0.308838  0.191162  -0.007449  1
  Li  Li25  1  0.295256  0.701238  0.483345  1
  Li  Li26  1  0.720568  0.207742  0.023541  1
  Li  Li27  1  0.758004  0.741996  0.549711  1
  P  P28  1  0.006133  0.003847  -0.003847  1
  P  P29  1  -0.038982  0.538982  0.461018  1
  P  P30  1  0.496153  0.003847  0.506133  1
  P  P31  1  0.496153  0.493867  -0.003847  1
  Se  Se32  1  0.495867  0.004133  -0.004133  1
  Se  Se33  1  0.751259  0.748741  0.777650  1
  Se  Se34  1  0.751259  0.222350  0.251259  1
  Se  Se35  1  0.277650  0.748741  0.251259  1
  Se  Se36  1  0.122997  0.121273  0.117499  1
  Se  Se37  1  0.069931  0.674990  0.569931  1
  Se  Se38  1  0.617499  0.121273  0.622997  1
  Se  Se39  1  0.621489  0.599875  0.121489  1
  Se  Se40  1  0.900125  0.878511  0.121489  1
  Se  Se41  1  0.825010  0.430069  0.569931  1
  Se  Se42  1  0.378727  0.882501  0.622997  1
  Se  Se43  1  0.378727  0.377003  0.117499  1
  Se  Se44  1  0.880108  0.126209  0.873791  1
  Se  Se45  1  0.837319  0.662681  0.337319  1
  Se  Se46  1  0.373791  0.126209  0.380108  1
  Se  Se47  1  0.373791  0.619892  0.873791  1
  Se  Se48  1  0.122997  0.882501  0.878727  1
  Se  Se49  1  0.069931  0.430069  0.325010  1
  Se  Se50  1  0.621489  0.878511  0.400125  1
  Se  Se51  1  0.617499  0.377003  0.878727  1
