# generated using pymatgen
data_Li6Te5PCl
_symmetry_space_group_name_H-M   'P 1'
_cell_length_a   11.75244461
_cell_length_b   11.75244461
_cell_length_c   11.75244461
_cell_angle_alpha   91.15282013
_cell_angle_beta   88.84717987
_cell_angle_gamma   91.15282013
_symmetry_Int_Tables_number   1
_chemical_formula_structural   Li6Te5PCl
_chemical_formula_sum   'Li24 Te20 P4 Cl4'
_cell_volume   1622.27445428
_cell_formula_units_Z   4
loop_
 _symmetry_equiv_pos_site_id
 _symmetry_equiv_pos_as_xyz
  1  'x, y, z'
loop_
 _atom_site_type_symbol
 _atom_site_label
 _atom_site_symmetry_multiplicity
 _atom_site_fract_x
 _atom_site_fract_y
 _atom_site_fract_z
 _atom_site_occupancy
  Cl  Cl0  1  0.105012  0.143779  0.605012  1
  Cl  Cl1  1  0.356221  0.394988  0.605012  1
  Cl  Cl2  1  0.105012  0.394988  -0.143779  1
  Cl  Cl3  1  0.332075  0.167925  0.832075  1
  Li  Li4  1  0.019431  0.263597  0.736403  1
  Li  Li5  1  0.514618  0.186570  0.196720  1
  Li  Li6  1  0.967402  0.757954  0.762714  1
  Li  Li7  1  0.499705  0.797683  0.202317  1
  Li  Li8  1  0.967402  0.237286  0.242046  1
  Li  Li9  1  0.451700  0.276811  0.723189  1
  Li  Li10  1  0.041541  0.751856  0.248144  1
  Li  Li11  1  0.514618  0.803280  0.813430  1
  Li  Li12  1  0.702317  0.000295  0.202317  1
  Li  Li13  1  0.742046  0.532598  0.762714  1
  Li  Li14  1  0.696720  0.985382  0.813430  1
  Li  Li15  1  0.748144  0.458459  0.248144  1
  Li  Li16  1  0.313430  0.985382  0.196720  1
  Li  Li17  1  0.236403  0.480569  0.736403  1
  Li  Li18  1  0.223189  0.048300  0.723189  1
  Li  Li19  1  0.262714  0.532598  0.242046  1
  Li  Li20  1  0.313430  0.803280  0.014618  1
  Li  Li21  1  0.236403  0.263597  0.519431  1
  Li  Li22  1  0.702317  0.797683  -0.000295  1
  Li  Li23  1  0.742046  0.237286  0.467402  1
  Li  Li24  1  0.223189  0.276811  0.951700  1
  Li  Li25  1  0.262714  0.757954  0.467402  1
  Li  Li26  1  0.696720  0.186570  0.014618  1
  Li  Li27  1  0.748144  0.751856  0.541541  1
  P  P28  1  0.006370  -0.002176  0.002176  1
  P  P29  1  -0.014369  0.514369  0.485631  1
  P  P30  1  0.502176  -0.002176  0.506370  1
  P  P31  1  0.502176  0.493630  0.002176  1
  Te  Te32  1  0.132155  0.122210  0.121997  1
  Te  Te33  1  0.105729  0.643031  0.605729  1
  Te  Te34  1  0.621997  0.122210  0.632155  1
  Te  Te35  1  0.629102  0.608741  0.129102  1
  Te  Te36  1  0.891259  0.870898  0.129102  1
  Te  Te37  1  0.856969  0.394271  0.605729  1
  Te  Te38  1  0.377790  0.878003  0.632155  1
  Te  Te39  1  0.377790  0.367845  0.121997  1
  Te  Te40  1  0.882424  0.115172  0.884828  1
  Te  Te41  1  0.865173  0.634827  0.365173  1
  Te  Te42  1  0.384828  0.115172  0.382424  1
  Te  Te43  1  0.384828  0.617576  0.884828  1
  Te  Te44  1  0.132155  0.878003  0.877790  1
  Te  Te45  1  0.105729  0.394271  0.356969  1
  Te  Te46  1  0.629102  0.870898  0.391259  1
  Te  Te47  1  0.621997  0.367845  0.877790  1
  Te  Te48  1  0.531271  -0.031271  0.031271  1
  Te  Te49  1  0.740061  0.759939  0.768561  1
  Te  Te50  1  0.740061  0.231439  0.240061  1
  Te  Te51  1  0.268561  0.759939  0.240061  1
