data_Li23P4S19Cl5_contcar
_audit_creation_date              2019-03-29
_audit_creation_method            'Materials Studio'
_symmetry_space_group_name_H-M    'P1'
_symmetry_Int_Tables_number       1
_symmetry_cell_setting            triclinic
loop_
_symmetry_equiv_pos_as_xyz
  x,y,z
_cell_length_a                    10.6476
_cell_length_b                    10.1041
_cell_length_c                    10.1041
_cell_angle_alpha                 86.8844
_cell_angle_beta                  90.0000
_cell_angle_gamma                 90.0000
loop_
_atom_site_label
_atom_site_type_symbol
_atom_site_fract_x
_atom_site_fract_y
_atom_site_fract_z
_atom_site_U_iso_or_equiv
_atom_site_adp_type
_atom_site_occupancy
Cl1    Cl    0.24253   0.75000   0.25000   0.00000  Uiso   1.00
Cl2    Cl   -0.10132  -0.00268   0.49732   0.00000  Uiso   1.00
Cl3    Cl    0.40250  -0.00012   0.00012   0.00000  Uiso   1.00
Cl4    Cl   -0.10132   0.50268   0.00268   0.00000  Uiso   1.00
Cl5    Cl    0.40250   0.50012   0.49988   0.00000  Uiso   1.00
Li6    Li    0.03707   0.25000   0.75000   0.00000  Uiso   1.00
Li7    Li    0.97288   0.75000   0.75000   0.00000  Uiso   1.00
Li8    Li    0.97288   0.25000   0.25000   0.00000  Uiso   1.00
Li9    Li    0.02153   0.75000   0.25000   0.00000  Uiso   1.00
Li10   Li    0.77156   0.01616   0.28830   0.00000  Uiso   1.00
Li11   Li    0.78132   0.98234   0.71251   0.00000  Uiso   1.00
Li12   Li    0.30222   0.98713   0.21136   0.00000  Uiso   1.00
Li13   Li    0.27584   0.01755   0.78729   0.00000  Uiso   1.00
Li14   Li    0.30222   0.78864   0.01287   0.00000  Uiso   1.00
Li15   Li    0.77156   0.71170   0.98384   0.00000  Uiso   1.00
Li16   Li    0.27584   0.21271   0.98245   0.00000  Uiso   1.00
Li17   Li    0.78132   0.28749   0.01766   0.00000  Uiso   1.00
Li18   Li    0.78132   0.51766   0.78749   0.00000  Uiso   1.00
Li19   Li    0.77156   0.48384   0.21170   0.00000  Uiso   1.00
Li20   Li    0.27584   0.48245   0.71271   0.00000  Uiso   1.00
Li21   Li    0.30222   0.51287   0.28864   0.00000  Uiso   1.00
Li22   Li    0.27584   0.28729   0.51755   0.00000  Uiso   1.00
Li23   Li    0.78132   0.21251   0.48234   0.00000  Uiso   1.00
Li24   Li    0.30222   0.71136   0.48713   0.00000  Uiso   1.00
Li25   Li    0.77156   0.78830   0.51616   0.00000  Uiso   1.00
Li26   Li    0.53629   0.25000   0.25000   0.00000  Uiso   1.00
Li27   Li    0.47179   0.25000   0.75000   0.00000  Uiso   1.00
Li28   Li    0.53629   0.75000   0.75000   0.00000  Uiso   1.00
P29    P    -0.00556  -0.00344   0.00344   0.00000  Uiso   1.00
P30    P    -0.00556   0.50344   0.49656   0.00000  Uiso   1.00
P31    P     0.49522   0.00111   0.50111   0.00000  Uiso   1.00
P32    P     0.49522   0.49889  -0.00111   0.00000  Uiso   1.00
S33    S     0.10488   0.10732   0.12362   0.00000  Uiso   1.00
S34    S     0.87562   0.87987   0.12013   0.00000  Uiso   1.00
S35    S     0.88798   0.12014   0.87986   0.00000  Uiso   1.00
S36    S     0.10488   0.87638   0.89268   0.00000  Uiso   1.00
S37    S     0.10488   0.62362   0.60732   0.00000  Uiso   1.00
S38    S     0.88798   0.37986   0.62014   0.00000  Uiso   1.00
S39    S     0.87562   0.62013   0.37987   0.00000  Uiso   1.00
S40    S     0.10488   0.39268   0.37638   0.00000  Uiso   1.00
S41    S     0.60373   0.11791   0.61791   0.00000  Uiso   1.00
S42    S     0.38147   0.88332   0.62517   0.00000  Uiso   1.00
S43    S     0.38147   0.12517   0.38332   0.00000  Uiso   1.00
S44    S     0.59208   0.88240   0.38240   0.00000  Uiso   1.00
S45    S     0.59208   0.61760   0.11760   0.00000  Uiso   1.00
S46    S     0.38147   0.37483   0.11668   0.00000  Uiso   1.00
S47    S     0.38147   0.61668   0.87483   0.00000  Uiso   1.00
S48    S     0.60373   0.38210   0.88209   0.00000  Uiso   1.00
S49    S     0.25340   0.25000   0.75000   0.00000  Uiso   1.00
S50    S     0.75451   0.75000   0.75000   0.00000  Uiso   1.00
S51    S     0.75451   0.25000   0.25000   0.00000  Uiso   1.00
loop_
_geom_bond_atom_site_label_1
_geom_bond_atom_site_label_2
_geom_bond_distance
_geom_bond_site_symmetry_2
_ccdc_geom_bond_type
P29    S33     2.063   .     D
P29    S34     2.057   1_445 S
P29    S35     2.058   1_454 S
P29    S36     2.063   1_544 S
P30    S37     2.063   .     D
P30    S38     2.058   1_455 S
P30    S39     2.057   1_455 S
P30    S40     2.063   .     S
P31    S41     2.067   .     S
P31    S42     2.072   1_545 S
P31    S43     2.072   .     S
P31    S44     2.024   1_545 D
P32    S45     2.024   .     D
P32    S46     2.072   .     S
P32    S47     2.072   1_554 S
P32    S48     2.067   1_554 S
S34    P29     2.057   1_665 S
S35    P29     2.058   1_656 S
S36    P29     2.063   1_566 S
S38    P30     2.058   1_655 S
S39    P30     2.057   1_655 S
S42    P31     2.072   1_565 S
S44    P31     2.024   1_565 D
S47    P32     2.072   1_556 S
S48    P32     2.067   1_556 S
