# generated using pymatgen
data_Li7SnS5I
_symmetry_space_group_name_H-M   'P 1'
_cell_length_a   10.44208612
_cell_length_b   10.71439614
_cell_length_c   10.60764910
_cell_angle_alpha   90.33045908
_cell_angle_beta   89.77819195
_cell_angle_gamma   89.02397121
_symmetry_Int_Tables_number   1
_chemical_formula_structural   Li7SnS5I
_chemical_formula_sum   'Li28 Sn4 S20 I4'
_cell_volume   1186.58936700
_cell_formula_units_Z   4
loop_
 _symmetry_equiv_pos_site_id
 _symmetry_equiv_pos_as_xyz
  1  'x, y, z'
loop_
 _atom_site_type_symbol
 _atom_site_label
 _atom_site_symmetry_multiplicity
 _atom_site_fract_x
 _atom_site_fract_y
 _atom_site_fract_z
 _atom_site_occupancy
  Li  Li0  1  0.031688  0.289977  0.819083  1
  Li  Li1  1  0.031338  0.795835  0.692744  1
  Li  Li2  1  0.007416  0.291059  0.177939  1
  Li  Li3  1  -0.001471  0.798217  0.308979  1
  Li  Li4  1  0.687066  0.979424  0.182822  1
  Li  Li5  1  0.697112  0.987393  0.802133  1
  Li  Li6  1  0.158124  0.025531  0.338694  1
  Li  Li7  1  0.368417  0.809351  0.995760  1
  Li  Li8  1  0.679366  0.801234  0.998787  1
  Li  Li9  1  0.215645  0.284704  0.981468  1
  Li  Li10  1  0.847010  0.464176  0.845493  1
  Li  Li11  1  0.883282  0.584088  0.131683  1
  Li  Li12  1  0.301016  0.450855  0.719952  1
  Li  Li13  1  0.236090  0.223299  0.531552  1
  Li  Li14  1  0.678814  0.338941  0.626555  1
  Li  Li15  1  0.216905  0.783659  0.507993  1
  Li  Li16  1  0.386899  0.340742  0.342574  1
  Li  Li17  1  0.642920  0.645152  0.342775  1
  Li  Li18  1  0.493672  0.196115  0.796550  1
  Li  Li19  1  0.499363  0.685001  0.697883  1
  Li  Li20  1  0.141632  0.616543  -0.109394  1
  Li  Li21  1  0.192416  0.487157  0.173854  1
  Li  Li22  1  0.818621  0.059549  0.466648  1
  Li  Li23  1  0.832026  0.794454  0.505261  1
  Li  Li24  1  0.397354  0.109821  0.134660  1
  Li  Li25  1  0.710690  0.176039  0.991038  1
  Li  Li26  1  0.328868  0.002296  0.813224  1
  Li  Li27  1  0.068295  0.056436  0.698283  1
  Sn  Sn28  1  0.015606  0.976818  0.004665  1
  Sn  Sn29  1  0.012202  0.484968  0.505192  1
  Sn  Sn30  1  0.507476  0.989585  0.501551  1
  Sn  Sn31  1  0.518403  0.480445  0.003112  1
  S  S32  1  0.148171  0.112519  0.127762  1
  S  S33  1  0.874998  0.845725  0.121806  1
  S  S34  1  0.894298  0.101240  0.857104  1
  S  S35  1  0.160358  0.857120  0.870832  1
  S  S36  1  0.147723  0.608221  0.640337  1
  S  S37  1  0.902405  0.347316  0.643953  1
  S  S38  1  0.880924  0.615884  0.371170  1
  S  S39  1  0.142965  0.356800  0.365281  1
  S  S40  1  0.645228  0.117160  0.628408  1
  S  S41  1  0.382758  0.864529  0.638216  1
  S  S42  1  0.366375  0.115704  0.374091  1
  S  S43  1  0.662190  0.873769  0.377485  1
  S  S44  1  0.650498  0.618711  0.118677  1
  S  S45  1  0.379460  0.347922  0.121600  1
  S  S46  1  0.379865  0.608538  0.873659  1
  S  S47  1  0.645546  0.349903  0.864376  1
  S  S48  1  0.254385  0.219797  0.757682  1
  S  S49  1  0.020167  0.934749  0.505026  1
  S  S50  1  0.536698  -0.007258  0.980504  1
  S  S51  1  0.030197  0.449152  0.001529  1
  I  I52  1  0.768594  0.725611  0.754530  1
  I  I53  1  0.761785  0.220302  0.246918  1
  I  I54  1  0.255170  0.740586  0.242440  1
  I  I55  1  0.504980  0.492916  0.512882  1
