# generated using pymatgen
data_Li7PS6
_symmetry_space_group_name_H-M   'P 1'
_cell_length_a   10.36666348
_cell_length_b   11.07231259
_cell_length_c   10.36666348
_cell_angle_alpha   90.00000000
_cell_angle_beta   94.87146972
_cell_angle_gamma   90.00000000
_symmetry_Int_Tables_number   1
_chemical_formula_structural   Li7PS6
_chemical_formula_sum   'Li28 P4 S24'
_cell_volume   1185.61776967
_cell_formula_units_Z   4
loop_
 _symmetry_equiv_pos_site_id
 _symmetry_equiv_pos_as_xyz
  1  'x, y, z'
loop_
 _atom_site_type_symbol
 _atom_site_label
 _atom_site_symmetry_multiplicity
 _atom_site_fract_x
 _atom_site_fract_y
 _atom_site_fract_z
 _atom_site_occupancy
  Li  Li0  1  0.019536  0.190586  0.703009  1
  Li  Li1  1  0.519536  0.190586  0.203009  1
  Li  Li2  1  -0.019536  0.690586  0.796991  1
  Li  Li3  1  0.480464  0.690586  0.296991  1
  Li  Li4  1  -0.019536  0.190586  0.296991  1
  Li  Li5  1  0.480464  0.190586  0.796991  1
  Li  Li6  1  0.019536  0.690586  0.203009  1
  Li  Li7  1  0.519536  0.690586  0.703009  1
  Li  Li8  1  0.750000  0.035339  0.250000  1
  Li  Li9  1  0.750000  0.535339  0.750000  1
  Li  Li10  1  0.250000  0.035339  0.750000  1
  Li  Li11  1  0.250000  0.535339  0.250000  1
  Li  Li12  1  0.203009  0.690586  0.019536  1
  Li  Li13  1  0.203009  0.190586  0.519536  1
  Li  Li14  1  0.796991  0.690586  -0.019536  1
  Li  Li15  1  0.796991  0.190586  0.480464  1
  Li  Li16  1  0.296991  0.190586  -0.019536  1
  Li  Li17  1  0.296991  0.690586  0.480464  1
  Li  Li18  1  0.703009  0.190586  0.019536  1
  Li  Li19  1  0.703009  0.690586  0.519536  1
  Li  Li20  1  0.647484  0.920775  0.647484  1
  Li  Li21  1  0.352516  0.920775  0.352516  1
  Li  Li22  1  0.647484  0.420775  0.147484  1
  Li  Li23  1  0.352516  0.420775  0.852516  1
  Li  Li24  1  0.147484  0.920775  0.147484  1
  Li  Li25  1  0.852516  0.920775  0.852516  1
  Li  Li26  1  0.147484  0.420775  0.647484  1
  Li  Li27  1  0.852516  0.420775  0.352516  1
  P  P28  1  0.000000  0.057963  0.000000  1
  P  P29  1  0.000000  0.557963  0.500000  1
  P  P30  1  0.500000  0.057963  0.500000  1
  P  P31  1  0.500000  0.557963  0.000000  1
  S  S32  1  0.124710  0.152291  0.124710  1
  S  S33  1  0.124710  0.652291  0.624710  1
  S  S34  1  0.624710  0.152291  0.624710  1
  S  S35  1  0.624710  0.652291  0.124710  1
  S  S36  1  0.894723  0.939549  0.105277  1
  S  S37  1  0.894723  0.439549  0.605277  1
  S  S38  1  0.394723  0.939549  0.605277  1
  S  S39  1  0.394723  0.439549  0.105277  1
  S  S40  1  0.875290  0.152291  0.875290  1
  S  S41  1  0.875290  0.652291  0.375290  1
  S  S42  1  0.375290  0.152291  0.375290  1
  S  S43  1  0.375290  0.652291  0.875290  1
  S  S44  1  0.105277  0.939549  0.894723  1
  S  S45  1  0.105277  0.439549  0.394723  1
  S  S46  1  0.605277  0.939549  0.394723  1
  S  S47  1  0.605277  0.439549  0.894723  1
  S  S48  1  0.250000  0.253823  0.750000  1
  S  S49  1  0.750000  0.753823  0.750000  1
  S  S50  1  0.750000  0.253823  0.250000  1
  S  S51  1  0.250000  0.753823  0.250000  1
  S  S52  1  0.000000  0.102412  0.500000  1
  S  S53  1  0.500000  0.602412  0.500000  1
  S  S54  1  0.000000  0.602412  0.000000  1
  S  S55  1  0.500000  0.102412  0.000000  1
