# generated using pymatgen
data_Li7GeSe5Br
_symmetry_space_group_name_H-M   'P 1'
_cell_length_a   10.84429905
_cell_length_b   10.71936633
_cell_length_c   10.74761202
_cell_angle_alpha   89.50997993
_cell_angle_beta   89.81221380
_cell_angle_gamma   90.61239884
_symmetry_Int_Tables_number   1
_chemical_formula_structural   Li7GeSe5Br
_chemical_formula_sum   'Li28 Ge4 Se20 Br4'
_cell_volume   1249.22142150
_cell_formula_units_Z   4
loop_
 _symmetry_equiv_pos_site_id
 _symmetry_equiv_pos_as_xyz
  1  'x, y, z'
loop_
 _atom_site_type_symbol
 _atom_site_label
 _atom_site_symmetry_multiplicity
 _atom_site_fract_x
 _atom_site_fract_y
 _atom_site_fract_z
 _atom_site_occupancy
  Li  Li0  1  0.031632  0.326280  0.793453  1
  Li  Li1  1  0.985035  0.735371  0.733475  1
  Li  Li2  1  0.981517  0.274928  0.168059  1
  Li  Li3  1  0.019027  0.815849  0.290264  1
  Li  Li4  1  0.796938  0.996060  0.300447  1
  Li  Li5  1  0.800228  0.979525  0.690140  1
  Li  Li6  1  0.141398  0.099113  0.347546  1
  Li  Li7  1  0.209577  0.677628  0.982191  1
  Li  Li8  1  0.783991  0.723388  0.960955  1
  Li  Li9  1  0.235972  0.301895  0.978610  1
  Li  Li10  1  0.735916  0.503167  0.735085  1
  Li  Li11  1  0.748093  0.464630  0.224084  1
  Li  Li12  1  0.303649  0.476546  0.701979  1
  Li  Li13  1  0.297360  0.271748  0.512360  1
  Li  Li14  1  0.846226  0.191038  0.466012  1
  Li  Li15  1  0.183672  0.840345  0.537652  1
  Li  Li16  1  0.575883  0.260957  0.397166  1
  Li  Li17  1  0.500536  0.825385  0.173832  1
  Li  Li18  1  0.497179  0.256374  0.740384  1
  Li  Li19  1  0.541998  0.811132  0.825776  1
  Li  Li20  1  0.329954  0.510779  0.321718  1
  Li  Li21  1  0.078068  0.544301  0.211017  1
  Li  Li22  1  0.547950  0.704906  0.571399  1
  Li  Li23  1  0.819972  0.782193  0.495793  1
  Li  Li24  1  0.551025  0.222717  0.104001  1
  Li  Li25  1  0.753926  0.081968  0.031838  1
  Li  Li26  1  0.325254  0.022003  0.830985  1
  Li  Li27  1  0.079345  0.068949  0.693240  1
  Ge  Ge28  1  0.019422  0.999304  0.986105  1
  Ge  Ge29  1  0.008651  0.492110  0.488980  1
  Ge  Ge30  1  0.508351  0.995401  0.496837  1
  Ge  Ge31  1  0.511910  0.499860  0.995565  1
  Se  Se32  1  0.150188  0.121766  0.110744  1
  Se  Se33  1  0.877496  0.878390  0.108617  1
  Se  Se34  1  0.900602  0.127175  0.849190  1
  Se  Se35  1  0.137813  0.869804  0.852958  1
  Se  Se36  1  0.141605  0.619033  0.609329  1
  Se  Se37  1  0.882536  0.366408  0.617274  1
  Se  Se38  1  0.893086  0.613085  0.342724  1
  Se  Se39  1  0.131189  0.360388  0.357068  1
  Se  Se40  1  0.645125  0.136503  0.599214  1
  Se  Se41  1  0.392532  0.876461  0.645109  1
  Se  Se42  1  0.385315  0.114730  0.359462  1
  Se  Se43  1  0.620911  0.845179  0.378741  1
  Se  Se44  1  0.634603  0.638358  0.115613  1
  Se  Se45  1  0.387780  0.380316  0.136654  1
  Se  Se46  1  0.396048  0.624157  0.855362  1
  Se  Se47  1  0.640906  0.354017  0.894063  1
  Se  Se48  1  0.257178  0.240953  0.745756  1
  Se  Se49  1  0.752058  0.741738  0.726214  1
  Se  Se50  1  0.757671  0.225515  0.237272  1
  Se  Se51  1  0.986348  0.972090  0.481401  1
  Br  Br52  1  0.238737  0.722389  0.224025  1
  Br  Br53  1  0.522813  0.994198  0.992417  1
  Br  Br54  1  0.043256  0.479176  0.990297  1
  Br  Br55  1  0.474548  0.468097  0.509326  1
