# generated using pymatgen
data_Li7SiS5I
_symmetry_space_group_name_H-M   'P 1'
_cell_length_a   10.32222273
_cell_length_b   10.36867194
_cell_length_c   10.36867194
_cell_angle_alpha   90.57394583
_cell_angle_beta   88.95827901
_cell_angle_gamma   88.95827901
_symmetry_Int_Tables_number   1
_chemical_formula_structural   Li7SiS5I
_chemical_formula_sum   'Li28 Si4 S20 I4'
_cell_volume   1109.30930350
_cell_formula_units_Z   4
loop_
 _symmetry_equiv_pos_site_id
 _symmetry_equiv_pos_as_xyz
  1  'x, y, z'
loop_
 _atom_site_type_symbol
 _atom_site_label
 _atom_site_symmetry_multiplicity
 _atom_site_fract_x
 _atom_site_fract_y
 _atom_site_fract_z
 _atom_site_occupancy
  Li  Li0  1  0.015212  0.297134  0.771469  1
  Li  Li1  1  0.982996  0.718212  0.803766  1
  Li  Li2  1  0.982996  0.218212  0.303766  1
  Li  Li3  1  0.015212  0.797134  0.271469  1
  Li  Li4  1  0.757065  0.013378  0.243400  1
  Li  Li5  1  0.741435  0.979224  0.752599  1
  Li  Li6  1  0.232774  0.980942  0.249868  1
  Li  Li7  1  0.257065  0.743400  0.013378  1
  Li  Li8  1  0.732774  0.749868  0.980942  1
  Li  Li9  1  0.241435  0.252599  0.979224  1
  Li  Li10  1  0.757065  0.513378  0.743400  1
  Li  Li11  1  0.741435  0.479224  0.252599  1
  Li  Li12  1  0.232774  0.480942  0.749868  1
  Li  Li13  1  0.257065  0.243400  0.513378  1
  Li  Li14  1  0.732774  0.249868  0.480942  1
  Li  Li15  1  0.241435  0.752599  0.479224  1
  Li  Li16  1  0.515212  0.271469  0.297134  1
  Li  Li17  1  0.482996  0.803766  0.218212  1
  Li  Li18  1  0.482996  0.303766  0.718212  1
  Li  Li19  1  0.515212  0.771469  0.797134  1
  Li  Li20  1  0.388199  0.546645  0.257493  1
  Li  Li21  1  0.100199  0.549922  0.224299  1
  Li  Li22  1  0.600199  0.724299  0.549922  1
  Li  Li23  1  0.888199  0.757493  0.546645  1
  Li  Li24  1  0.600199  0.224299  0.049922  1
  Li  Li25  1  0.888199  0.257493  0.046645  1
  Li  Li26  1  0.388199  0.046645  0.757493  1
  Li  Li27  1  0.100199  0.049922  0.724299  1
  Si  Si28  1  0.005539  0.993143  0.989355  1
  Si  Si29  1  0.005539  0.493143  0.489355  1
  Si  Si30  1  0.505539  0.989355  0.493143  1
  Si  Si31  1  0.505539  0.489355  0.993143  1
  S  S32  1  0.101957  0.124272  0.115315  1
  S  S33  1  0.883037  0.873441  0.101091  1
  S  S34  1  0.897365  0.112782  0.859327  1
  S  S35  1  0.136842  0.880088  0.872719  1
  S  S36  1  0.101957  0.624272  0.615315  1
  S  S37  1  0.883037  0.373441  0.601091  1
  S  S38  1  0.897365  0.612782  0.359327  1
  S  S39  1  0.136842  0.380088  0.372719  1
  S  S40  1  0.601957  0.115315  0.624272  1
  S  S41  1  0.397365  0.859327  0.612782  1
  S  S42  1  0.383037  0.101091  0.373441  1
  S  S43  1  0.636842  0.872719  0.380088  1
  S  S44  1  0.601957  0.615315  0.124272  1
  S  S45  1  0.397365  0.359327  0.112782  1
  S  S46  1  0.383037  0.601091  0.873441  1
  S  S47  1  0.636842  0.372719  0.880088  1
  S  S48  1  0.248705  0.241403  0.744679  1
  S  S49  1  0.748705  0.744679  0.741403  1
  S  S50  1  0.748705  0.244679  0.241403  1
  S  S51  1  0.248705  0.741403  0.244679  1
  I  I52  1  0.008676  0.992423  0.474501  1
  I  I53  1  0.508676  0.974501  0.992423  1
  I  I54  1  0.008676  0.492423  0.974501  1
  I  I55  1  0.508676  0.474501  0.492423  1
