# generated using pymatgen
data_Li6PS5I
_symmetry_space_group_name_H-M   'P 1'
_cell_length_a   10.35760843
_cell_length_b   10.35760843
_cell_length_c   10.65220326
_cell_angle_alpha   90.00000000
_cell_angle_beta   90.00000000
_cell_angle_gamma   88.87616955
_symmetry_Int_Tables_number   1
_chemical_formula_structural   Li6PS5I
_chemical_formula_sum   'Li24 P4 S20 I4'
_cell_volume   1142.54910207
_cell_formula_units_Z   4
loop_
 _symmetry_equiv_pos_site_id
 _symmetry_equiv_pos_as_xyz
  1  'x, y, z'
loop_
 _atom_site_type_symbol
 _atom_site_label
 _atom_site_symmetry_multiplicity
 _atom_site_fract_x
 _atom_site_fract_y
 _atom_site_fract_z
 _atom_site_occupancy
  I  I1  1  0.250000  0.250000  0.764689  1
  I  I2  1  0.750000  0.750000  0.764689  1
  I  I3  1  0.000000  0.000000  0.058394  1
  I  I4  1  0.500000  0.500000  0.058394  1
  Li  Li5  1  -0.003991  0.310063  0.696435  1
  Li  Li6  1  0.003991  0.689937  0.696435  1
  Li  Li7  1  0.975885  0.226874  0.232506  1
  Li  Li8  1  0.024115  0.773126  0.232506  1
  Li  Li9  1  0.773126  0.024115  0.232506  1
  Li  Li10  1  0.689937  0.003991  0.696435  1
  Li  Li11  1  0.226874  0.975885  0.232506  1
  Li  Li12  1  0.310063  -0.003991  0.696435  1
  Li  Li13  1  0.250000  0.750000  0.031918  1
  Li  Li14  1  0.750000  0.750000  0.013801  1
  Li  Li15  1  0.250000  0.250000  0.013801  1
  Li  Li16  1  0.750000  0.250000  0.031918  1
  Li  Li17  1  0.810063  0.496009  0.696435  1
  Li  Li18  1  0.726874  0.475885  0.232506  1
  Li  Li19  1  0.189937  0.503991  0.696435  1
  Li  Li20  1  0.273126  0.524115  0.232506  1
  Li  Li21  1  0.250000  0.250000  0.508477  1
  Li  Li22  1  0.750000  0.250000  0.472580  1
  Li  Li23  1  0.250000  0.750000  0.472580  1
  Li  Li24  1  0.750000  0.750000  0.508477  1
  Li  Li25  1  0.524115  0.273126  0.232506  1
  Li  Li26  1  0.475885  0.726874  0.232506  1
  Li  Li27  1  0.503991  0.189937  0.696435  1
  Li  Li28  1  0.496009  0.810063  0.696435  1
  P  P29  1  0.000000  0.000000  0.507353  1
  P  P30  1  0.500000  0.000000  0.009831  1
  P  P31  1  0.000000  0.500000  0.009831  1
  P  P32  1  0.500000  0.500000  0.507353  1
  S  S33  1  0.750000  0.250000  0.253096  1
  S  S34  1  0.250000  0.750000  0.253096  1
  S  S35  1  0.000000  0.500000  0.577282  1
  S  S36  1  0.500000  0.000000  0.577282  1
  S  S37  1  0.113323  0.113323  0.394308  1
  S  S38  1  0.886677  0.886677  0.394308  1
  S  S39  1  0.883819  0.116181  0.618453  1
  S  S40  1  0.116181  0.883819  0.618453  1
  S  S41  1  0.387435  0.112565  0.129669  1
  S  S42  1  0.385419  0.885419  0.900976  1
  S  S43  1  0.612565  0.887435  0.129669  1
  S  S44  1  0.614581  0.114581  0.900976  1
  S  S45  1  0.112565  0.387435  0.129669  1
  S  S46  1  0.885419  0.385419  0.900976  1
  S  S47  1  0.114581  0.614581  0.900976  1
  S  S48  1  0.887435  0.612565  0.129669  1
  S  S49  1  0.383819  0.616181  0.618453  1
  S  S50  1  0.386677  0.386677  0.394308  1
  S  S51  1  0.616181  0.383819  0.618453  1
  S  S52  1  0.613323  0.613323  0.394308  1
