# generated using pymatgen
data_Li7GeS5I
_symmetry_space_group_name_H-M   'P 1'
_cell_length_a   10.52021074
_cell_length_b   10.40106231
_cell_length_c   10.36950612
_cell_angle_alpha   89.58388746
_cell_angle_beta   90.44763924
_cell_angle_gamma   89.26332000
_symmetry_Int_Tables_number   1
_chemical_formula_structural   Li7GeS5I
_chemical_formula_sum   'Li28 Ge4 S20 I4'
_cell_volume   1134.48636741
_cell_formula_units_Z   4
loop_
 _symmetry_equiv_pos_site_id
 _symmetry_equiv_pos_as_xyz
  1  'x, y, z'
loop_
 _atom_site_type_symbol
 _atom_site_label
 _atom_site_symmetry_multiplicity
 _atom_site_fract_x
 _atom_site_fract_y
 _atom_site_fract_z
 _atom_site_occupancy
  Li  Li0  1  0.041735  0.303163  0.780410  1
  Li  Li1  1  0.983411  0.716529  0.761548  1
  Li  Li2  1  0.991475  0.190564  0.292248  1
  Li  Li3  1  0.995527  0.824987  0.295164  1
  Li  Li4  1  0.756063  0.015299  0.233488  1
  Li  Li5  1  0.730146  0.980828  0.788127  1
  Li  Li6  1  0.204728  0.007451  0.297468  1
  Li  Li7  1  0.216846  0.704810  0.966952  1
  Li  Li8  1  0.785525  0.714472  0.968731  1
  Li  Li9  1  0.271334  0.245146  0.979763  1
  Li  Li10  1  0.741371  0.509967  0.725083  1
  Li  Li11  1  0.737912  0.482527  0.278021  1
  Li  Li12  1  0.291702  0.468963  0.710881  1
  Li  Li13  1  0.231208  0.212779  0.516302  1
  Li  Li14  1  0.782318  0.223219  0.478938  1
  Li  Li15  1  0.189417  0.825825  0.531626  1
  Li  Li16  1  0.537279  0.274402  0.314665  1
  Li  Li17  1  0.520907  0.801085  0.194700  1
  Li  Li18  1  0.496214  0.260257  0.729630  1
  Li  Li19  1  0.530687  0.775641  0.804663  1
  Li  Li20  1  0.324326  0.477560  0.312067  1
  Li  Li21  1  0.044847  0.536728  0.223341  1
  Li  Li22  1  0.590394  0.723937  0.549926  1
  Li  Li23  1  0.839374  0.834752  0.513865  1
  Li  Li24  1  0.589802  0.223487  0.064261  1
  Li  Li25  1  0.835285  0.295994  0.014580  1
  Li  Li26  1  0.313647  0.009666  0.782564  1
  Li  Li27  1  0.032330  0.037665  0.683439  1
  Ge  Ge28  1  0.011543  0.003153  0.986710  1
  Ge  Ge29  1  0.012009  0.499960  0.499871  1
  Ge  Ge30  1  0.514335  0.998427  0.499350  1
  Ge  Ge31  1  0.517967  0.495182  0.000562  1
  S  S32  1  0.128149  0.127078  0.113489  1
  S  S33  1  0.884478  0.876124  0.100264  1
  S  S34  1  0.896869  0.130995  0.853630  1
  S  S35  1  0.126866  0.883088  0.846337  1
  S  S36  1  0.137563  0.618838  0.621970  1
  S  S37  1  0.891387  0.370854  0.616233  1
  S  S38  1  0.892967  0.628745  0.369675  1
  S  S39  1  0.128272  0.373277  0.366588  1
  S  S40  1  0.639783  0.117889  0.621285  1
  S  S41  1  0.403403  0.860085  0.621031  1
  S  S42  1  0.386800  0.116984  0.373667  1
  S  S43  1  0.643071  0.872290  0.378012  1
  S  S44  1  0.639558  0.621956  0.119219  1
  S  S45  1  0.408742  0.360066  0.128918  1
  S  S46  1  0.392756  0.606412  0.865731  1
  S  S47  1  0.643156  0.363270  0.883918  1
  S  S48  1  0.262241  0.237625  0.745524  1
  S  S49  1  0.753771  0.748015  0.731545  1
  S  S50  1  0.758567  0.246654  0.240814  1
  S  S51  1  0.028831  0.987445  0.457775  1
  I  I52  1  0.255190  0.735535  0.236126  1
  I  I53  1  0.512405  0.983942  0.984348  1
  I  I54  1  0.006056  0.510828  0.968212  1
  I  I55  1  0.517451  0.473357  0.502528  1
