# generated using pymatgen
data_Li7GeS5I
_symmetry_space_group_name_H-M   'P 1'
_cell_length_a   10.46265476
_cell_length_b   10.31542670
_cell_length_c   10.31542670
_cell_angle_alpha   90.18003452
_cell_angle_beta   89.76836148
_cell_angle_gamma   89.76836148
_symmetry_Int_Tables_number   1
_chemical_formula_structural   Li7GeS5I
_chemical_formula_sum   'Li28 Ge4 S20 I4'
_cell_volume   1113.28671153
_cell_formula_units_Z   4
loop_
 _symmetry_equiv_pos_site_id
 _symmetry_equiv_pos_as_xyz
  1  'x, y, z'
loop_
 _atom_site_type_symbol
 _atom_site_label
 _atom_site_symmetry_multiplicity
 _atom_site_fract_x
 _atom_site_fract_y
 _atom_site_fract_z
 _atom_site_occupancy
  Li  Li0  1  0.033522  0.290537  0.783956  1
  Li  Li1  1  0.033202  0.827006  0.674042  1
  Li  Li2  1  0.033202  0.327006  0.174042  1
  Li  Li3  1  0.033522  0.790537  0.283956  1
  Li  Li4  1  0.855222  0.988863  0.297481  1
  Li  Li5  1  0.717894  0.986340  0.816231  1
  Li  Li6  1  0.157225  0.097888  0.354516  1
  Li  Li7  1  0.355222  0.797481  0.988863  1
  Li  Li8  1  0.657225  0.854516  0.097888  1
  Li  Li9  1  0.217894  0.316231  0.986340  1
  Li  Li10  1  0.855222  0.488863  0.797481  1
  Li  Li11  1  0.717894  0.486340  0.316231  1
  Li  Li12  1  0.157225  0.597888  0.854516  1
  Li  Li13  1  0.355222  0.297481  0.488863  1
  Li  Li14  1  0.657225  0.354516  0.597888  1
  Li  Li15  1  0.217894  0.816231  0.486340  1
  Li  Li16  1  0.533522  0.283956  0.290537  1
  Li  Li17  1  0.533202  0.674042  0.327006  1
  Li  Li18  1  0.533202  0.174042  0.827006  1
  Li  Li19  1  0.533522  0.783956  0.790537  1
  Li  Li20  1  0.336486  0.474228  0.281376  1
  Li  Li21  1  0.895305  0.610217  0.087259  1
  Li  Li22  1  0.395305  0.587259  0.610217  1
  Li  Li23  1  0.836486  0.781376  0.474228  1
  Li  Li24  1  0.395305  0.087259  0.110217  1
  Li  Li25  1  0.836486  0.281376  0.974228  1
  Li  Li26  1  0.336486  0.974228  0.781376  1
  Li  Li27  1  0.895305  0.110217  0.587259  1
  Ge  Ge28  1  0.035069  0.981803  0.983880  1
  Ge  Ge29  1  0.035069  0.481803  0.483880  1
  Ge  Ge30  1  0.535069  0.983880  0.481803  1
  Ge  Ge31  1  0.535069  0.483880  0.981803  1
  S  S32  1  0.152325  0.116535  0.107962  1
  S  S33  1  0.903534  0.858978  0.104933  1
  S  S34  1  0.915137  0.098857  0.845351  1
  S  S35  1  0.161470  0.849087  0.866766  1
  S  S36  1  0.152325  0.616535  0.607962  1
  S  S37  1  0.903534  0.358978  0.604933  1
  S  S38  1  0.915137  0.598857  0.345351  1
  S  S39  1  0.161470  0.349087  0.366766  1
  S  S40  1  0.652325  0.107962  0.616535  1
  S  S41  1  0.415137  0.845351  0.598857  1
  S  S42  1  0.403534  0.104933  0.358978  1
  S  S43  1  0.661470  0.866766  0.349087  1
  S  S44  1  0.652325  0.607962  0.116535  1
  S  S45  1  0.415137  0.345351  0.098857  1
  S  S46  1  0.403534  0.604933  0.858978  1
  S  S47  1  0.661470  0.366766  0.849087  1
  S  S48  1  0.016468  0.944513  0.465613  1
  S  S49  1  0.516468  0.965613  0.944513  1
  S  S50  1  0.016468  0.444513  0.965613  1
  S  S51  1  0.516468  0.465613  0.444513  1
  I  I52  1  0.287142  0.233108  0.735562  1
  I  I53  1  0.787142  0.735562  0.733108  1
  I  I54  1  0.787142  0.235562  0.233108  1
  I  I55  1  0.287142  0.733108  0.235562  1
