# generated using pymatgen
data_Li6PSe5Cl
_symmetry_space_group_name_H-M   'P 1'
_cell_length_a   10.62668059
_cell_length_b   10.65324274
_cell_length_c   10.38574391
_cell_angle_alpha   90.00000000
_cell_angle_beta   90.00000000
_cell_angle_gamma   90.00000000
_symmetry_Int_Tables_number   1
_chemical_formula_structural   Li6PSe5Cl
_chemical_formula_sum   'Li24 P4 Se20 Cl4'
_cell_volume   1175.75561021
_cell_formula_units_Z   4
loop_
 _symmetry_equiv_pos_site_id
 _symmetry_equiv_pos_as_xyz
  1  'x, y, z'
loop_
 _atom_site_type_symbol
 _atom_site_label
 _atom_site_symmetry_multiplicity
 _atom_site_fract_x
 _atom_site_fract_y
 _atom_site_fract_z
 _atom_site_occupancy
  Cl  Cl0  1  0.000000  0.005950  0.500000  1
  Cl  Cl1  1  0.500000  0.494050  0.500000  1
  Cl  Cl2  1  0.250000  0.250000  0.777821  1
  Cl  Cl3  1  0.750000  0.250000  0.222179  1
  Li  Li4  1  -0.010058  0.308928  0.819978  1
  Li  Li5  1  0.489942  0.191072  0.180022  1
  Li  Li6  1  0.947515  0.640776  0.809371  1
  Li  Li7  1  0.447515  0.859224  0.190629  1
  Li  Li8  1  1.010058  0.308928  0.180022  1
  Li  Li9  1  0.510058  0.191072  0.819978  1
  Li  Li10  1  0.052485  0.640776  0.190629  1
  Li  Li11  1  0.552485  0.859224  0.809371  1
  Li  Li12  1  0.697964  0.010392  0.158244  1
  Li  Li13  1  0.636438  0.542464  0.666368  1
  Li  Li14  1  0.863562  0.957536  0.666368  1
  Li  Li15  1  0.802036  0.489608  0.158244  1
  Li  Li16  1  0.136438  0.957536  0.333632  1
  Li  Li17  1  0.197964  0.489608  0.841756  1
  Li  Li18  1  0.302036  0.010392  0.841756  1
  Li  Li19  1  0.363562  0.542464  0.333632  1
  Li  Li20  1  0.250000  0.750000  0.027426  1
  Li  Li21  1  0.250000  0.250000  0.545626  1
  Li  Li22  1  0.750000  0.750000  0.972574  1
  Li  Li23  1  0.750000  0.250000  0.454374  1
  Li  Li24  1  0.250000  0.250000  0.998938  1
  Li  Li25  1  0.250000  0.750000  0.498259  1
  Li  Li26  1  0.750000  0.250000  0.001062  1
  Li  Li27  1  0.750000  0.750000  0.501741  1
  P  P28  1  0.000000  0.986579  0.000000  1
  P  P29  1  0.000000  0.491387  0.500000  1
  P  P30  1  0.500000  1.008613  0.500000  1
  P  P31  1  0.500000  0.513421  0.000000  1
  Se  Se32  1  0.000000  0.474765  0.000000  1
  Se  Se33  1  0.500000  0.025235  0.000000  1
  Se  Se34  1  0.750000  0.750000  0.737370  1
  Se  Se35  1  0.250000  0.750000  0.262630  1
  Se  Se36  1  0.121896  0.102645  0.127470  1
  Se  Se37  1  0.115320  0.605465  0.635415  1
  Se  Se38  1  0.633150  0.119534  0.618330  1
  Se  Se39  1  0.611397  0.633988  0.131252  1
  Se  Se40  1  0.888603  0.866012  0.131252  1
  Se  Se41  1  0.866850  0.380466  0.618330  1
  Se  Se42  1  0.384680  0.894535  0.635415  1
  Se  Se43  1  0.378104  0.397355  0.127470  1
  Se  Se44  1  0.878104  0.102645  0.872530  1
  Se  Se45  1  0.884680  0.605465  0.364585  1
  Se  Se46  1  0.366850  0.119534  0.381670  1
  Se  Se47  1  0.388603  0.633988  0.868748  1
  Se  Se48  1  0.111397  0.866012  0.868748  1
  Se  Se49  1  0.133150  0.380466  0.381670  1
  Se  Se50  1  0.615320  0.894535  0.364585  1
  Se  Se51  1  0.621896  0.397355  0.872530  1
