# generated using pymatgen
data_Li7SnS5I
_symmetry_space_group_name_H-M   'P 1'
_cell_length_a   10.83095868
_cell_length_b   10.45785301
_cell_length_c   10.45785301
_cell_angle_alpha   90.12051504
_cell_angle_beta   89.49320359
_cell_angle_gamma   89.49320359
_symmetry_Int_Tables_number   1
_chemical_formula_structural   Li7SnS5I
_chemical_formula_sum   'Li28 Sn4 S20 I4'
_cell_volume   1184.45060054
_cell_formula_units_Z   4
loop_
 _symmetry_equiv_pos_site_id
 _symmetry_equiv_pos_as_xyz
  1  'x, y, z'
loop_
 _atom_site_type_symbol
 _atom_site_label
 _atom_site_symmetry_multiplicity
 _atom_site_fract_x
 _atom_site_fract_y
 _atom_site_fract_z
 _atom_site_occupancy
  Li  Li0  1  0.013186  0.346218  0.811480  1
  Li  Li1  1  0.011088  0.803765  0.683971  1
  Li  Li2  1  0.011088  0.303765  0.183971  1
  Li  Li3  1  0.013186  0.846218  0.311480  1
  Li  Li4  1  0.656192  0.886786  0.131026  1
  Li  Li5  1  0.712454  0.023230  0.824031  1
  Li  Li6  1  0.358304  0.027018  0.149258  1
  Li  Li7  1  0.156192  0.631026  0.886786  1
  Li  Li8  1  0.858304  0.649258  0.027018  1
  Li  Li9  1  0.212454  0.324031  0.023230  1
  Li  Li10  1  0.656192  0.386786  0.631026  1
  Li  Li11  1  0.712454  0.523230  0.324031  1
  Li  Li12  1  0.358304  0.527018  0.649258  1
  Li  Li13  1  0.156192  0.131026  0.386786  1
  Li  Li14  1  0.858304  0.149258  0.527018  1
  Li  Li15  1  0.212454  0.824031  0.523230  1
  Li  Li16  1  0.513186  0.311480  0.346218  1
  Li  Li17  1  0.511088  0.683971  0.303765  1
  Li  Li18  1  0.511088  0.183971  0.803765  1
  Li  Li19  1  0.513186  0.811480  0.846218  1
  Li  Li20  1  0.327298  0.484973  0.335896  1
  Li  Li21  1  0.064351  0.560251  0.214803  1
  Li  Li22  1  0.564351  0.714803  0.560251  1
  Li  Li23  1  0.827298  0.835896  0.484973  1
  Li  Li24  1  0.564351  0.214803  0.060251  1
  Li  Li25  1  0.827298  0.335896  0.984973  1
  Li  Li26  1  0.327298  0.984973  0.835896  1
  Li  Li27  1  0.064351  0.060251  0.714803  1
  Sn  Sn28  1  0.011386  -0.000566  0.006697  1
  Sn  Sn29  1  0.011386  0.499434  0.506697  1
  Sn  Sn30  1  0.511386  0.006697  0.499434  1
  Sn  Sn31  1  0.511386  0.506697  -0.000566  1
  S  S32  1  0.147699  0.124398  0.138025  1
  S  S33  1  0.883959  0.859571  0.127132  1
  S  S34  1  0.900581  0.142573  0.866203  1
  S  S35  1  0.135112  0.876965  0.856429  1
  S  S36  1  0.147699  0.624398  0.638025  1
  S  S37  1  0.883959  0.359571  0.627132  1
  S  S38  1  0.900581  0.642573  0.366203  1
  S  S39  1  0.135112  0.376965  0.356429  1
  S  S40  1  0.647699  0.138025  0.624398  1
  S  S41  1  0.400581  0.866203  0.642573  1
  S  S42  1  0.383959  0.127132  0.359571  1
  S  S43  1  0.635112  0.856429  0.376965  1
  S  S44  1  0.647699  0.638025  0.124398  1
  S  S45  1  0.400581  0.366203  0.142573  1
  S  S46  1  0.383959  0.627132  0.859571  1
  S  S47  1  0.635112  0.356429  0.876965  1
  S  S48  1  0.017389  0.971155  0.508595  1
  S  S49  1  0.517389  0.008595  0.971155  1
  S  S50  1  0.017389  0.471155  0.008595  1
  S  S51  1  0.517389  0.508595  0.471155  1
  I  I52  1  0.261001  0.247642  0.755365  1
  I  I53  1  0.761001  0.755365  0.747642  1
  I  I54  1  0.761001  0.255365  0.247642  1
  I  I55  1  0.261001  0.747642  0.255365  1
