# generated using pymatgen
data_Li7SiTe5I
_symmetry_space_group_name_H-M   'P 1'
_cell_length_a   11.77509897
_cell_length_b   11.61546289
_cell_length_c   11.61546289
_cell_angle_alpha   90.95696390
_cell_angle_beta   89.94244322
_cell_angle_gamma   89.94244322
_symmetry_Int_Tables_number   1
_chemical_formula_structural   Li7SiTe5I
_chemical_formula_sum   'Li28 Si4 Te20 I4'
_cell_volume   1588.46110366
_cell_formula_units_Z   4
loop_
 _symmetry_equiv_pos_site_id
 _symmetry_equiv_pos_as_xyz
  1  'x, y, z'
loop_
 _atom_site_type_symbol
 _atom_site_label
 _atom_site_symmetry_multiplicity
 _atom_site_fract_x
 _atom_site_fract_y
 _atom_site_fract_z
 _atom_site_occupancy
  Li  Li0  1  0.995541  0.272381  0.766155  1
  Li  Li1  1  0.053449  0.995491  0.677468  1
  Li  Li2  1  0.053449  0.495491  0.177468  1
  Li  Li3  1  0.995541  0.772381  0.266155  1
  Li  Li4  1  0.821336  0.983648  0.269177  1
  Li  Li5  1  0.672083  0.961845  0.790877  1
  Li  Li6  1  0.118532  0.092368  0.341117  1
  Li  Li7  1  0.321336  0.769177  0.983648  1
  Li  Li8  1  0.618532  0.841117  0.092368  1
  Li  Li9  1  0.172083  0.290877  0.961845  1
  Li  Li10  1  0.821336  0.483648  0.769177  1
  Li  Li11  1  0.672083  0.461845  0.290877  1
  Li  Li12  1  0.118532  0.592368  0.841117  1
  Li  Li13  1  0.321336  0.269177  0.483648  1
  Li  Li14  1  0.618532  0.341117  0.592368  1
  Li  Li15  1  0.172083  0.790877  0.461845  1
  Li  Li16  1  0.495541  0.266155  0.272381  1
  Li  Li17  1  0.553449  0.677468  0.495491  1
  Li  Li18  1  0.553449  0.177468  0.995491  1
  Li  Li19  1  0.495541  0.766155  0.772381  1
  Li  Li20  1  0.414499  0.521020  0.218499  1
  Li  Li21  1  0.260433  0.526530  0.430610  1
  Li  Li22  1  0.760433  0.930610  0.526530  1
  Li  Li23  1  0.914499  0.718499  0.521020  1
  Li  Li24  1  0.760433  0.430610  0.026530  1
  Li  Li25  1  0.914499  0.218499  0.021020  1
  Li  Li26  1  0.414499  0.021020  0.718499  1
  Li  Li27  1  0.260433  0.026530  0.930610  1
  Si  Si28  1  0.988418  0.954248  0.969673  1
  Si  Si29  1  0.988418  0.454248  0.469673  1
  Si  Si30  1  0.488418  0.969673  0.454248  1
  Si  Si31  1  0.488418  0.469673  0.954248  1
  Te  Te32  1  0.101319  0.095747  0.094885  1
  Te  Te33  1  0.860441  0.829978  0.086182  1
  Te  Te34  1  0.874809  0.072988  0.827393  1
  Te  Te35  1  0.129690  0.839154  0.849129  1
  Te  Te36  1  0.101319  0.595747  0.594885  1
  Te  Te37  1  0.860441  0.329978  0.586182  1
  Te  Te38  1  0.874809  0.572988  0.327393  1
  Te  Te39  1  0.129690  0.339154  0.349129  1
  Te  Te40  1  0.601319  0.094885  0.595747  1
  Te  Te41  1  0.374809  0.827393  0.572988  1
  Te  Te42  1  0.360441  0.086182  0.329978  1
  Te  Te43  1  0.629690  0.849129  0.339154  1
  Te  Te44  1  0.601319  0.594885  0.095747  1
  Te  Te45  1  0.374809  0.327393  0.072988  1
  Te  Te46  1  0.360441  0.586182  0.829978  1
  Te  Te47  1  0.629690  0.349129  0.839154  1
  Te  Te48  1  0.984327  0.935310  0.450129  1
  Te  Te49  1  0.484327  0.950129  0.935310  1
  Te  Te50  1  0.984327  0.435310  0.950129  1
  Te  Te51  1  0.484327  0.450129  0.435310  1
  I  I52  1  0.225122  0.183622  0.727267  1
  I  I53  1  0.725122  0.727267  0.683622  1
  I  I54  1  0.725122  0.227267  0.183622  1
  I  I55  1  0.225122  0.683622  0.227267  1
