# generated using pymatgen
data_Li7SiS5Br
_symmetry_space_group_name_H-M   'P 1'
_cell_length_a   10.28810059
_cell_length_b   10.31289598
_cell_length_c   10.15752428
_cell_angle_alpha   91.02715787
_cell_angle_beta   90.42332325
_cell_angle_gamma   89.89914024
_symmetry_Int_Tables_number   1
_chemical_formula_structural   Li7SiS5Br
_chemical_formula_sum   'Li28 Si4 S20 Br4'
_cell_volume   1077.51043958
_cell_formula_units_Z   4
loop_
 _symmetry_equiv_pos_site_id
 _symmetry_equiv_pos_as_xyz
  1  'x, y, z'
loop_
 _atom_site_type_symbol
 _atom_site_label
 _atom_site_symmetry_multiplicity
 _atom_site_fract_x
 _atom_site_fract_y
 _atom_site_fract_z
 _atom_site_occupancy
  Li  Li0  1  0.022734  0.316298  0.803524  1
  Li  Li1  1  0.990969  0.711597  0.763685  1
  Li  Li2  1  0.983804  0.238492  0.240230  1
  Li  Li3  1  0.007982  0.805091  0.294670  1
  Li  Li4  1  0.819433  0.013341  0.324427  1
  Li  Li5  1  0.741820  0.978013  0.761655  1
  Li  Li6  1  0.191497  0.004102  0.299283  1
  Li  Li7  1  0.208850  0.706447  0.982707  1
  Li  Li8  1  0.798131  0.708164  0.971823  1
  Li  Li9  1  0.268239  0.260355  0.979215  1
  Li  Li10  1  0.741342  0.511697  0.721038  1
  Li  Li11  1  0.735836  0.474697  0.248872  1
  Li  Li12  1  0.272789  0.474165  0.725367  1
  Li  Li13  1  0.233646  0.220380  0.510315  1
  Li  Li14  1  0.756957  0.256082  0.478895  1
  Li  Li15  1  0.191684  0.828873  0.535851  1
  Li  Li16  1  0.523355  0.272256  0.313475  1
  Li  Li17  1  0.520675  0.827637  0.182711  1
  Li  Li18  1  0.487487  0.276099  0.715240  1
  Li  Li19  1  0.535644  0.784901  0.817320  1
  Li  Li20  1  0.335423  0.506295  0.321831  1
  Li  Li21  1  0.061944  0.540673  0.206883  1
  Li  Li22  1  0.580121  0.712657  0.549569  1
  Li  Li23  1  0.843821  0.805721  0.515964  1
  Li  Li24  1  0.584718  0.246671  0.055038  1
  Li  Li25  1  0.767437  0.073149  0.057884  1
  Li  Li26  1  0.325990  0.018890  0.792912  1
  Li  Li27  1  0.047311  0.052510  0.686406  1
  Si  Si28  1  0.022018  0.002234  0.983564  1
  Si  Si29  1  0.014535  0.497835  0.490243  1
  Si  Si30  1  0.515840  0.994009  0.499451  1
  Si  Si31  1  0.513060  0.506702  0.993178  1
  S  S32  1  0.138923  0.121978  0.107289  1
  S  S33  1  0.897166  0.886230  0.102869  1
  S  S34  1  0.898470  0.121455  0.865239  1
  S  S35  1  0.135316  0.885843  0.850712  1
  S  S36  1  0.137629  0.618012  0.606621  1
  S  S37  1  0.900529  0.378322  0.611121  1
  S  S38  1  0.895457  0.612111  0.361499  1
  S  S39  1  0.134141  0.380316  0.360877  1
  S  S40  1  0.632310  0.121101  0.616350  1
  S  S41  1  0.408646  0.867294  0.624284  1
  S  S42  1  0.387581  0.099613  0.375573  1
  S  S43  1  0.640434  0.869327  0.383658  1
  S  S44  1  0.630359  0.632454  0.111833  1
  S  S45  1  0.405948  0.382671  0.124713  1
  S  S46  1  0.387776  0.616279  0.871242  1
  S  S47  1  0.629750  0.379776  0.875809  1
  S  S48  1  0.249765  0.240634  0.744933  1
  S  S49  1  0.756273  0.744435  0.732768  1
  S  S50  1  0.748475  0.232528  0.241274  1
  S  S51  1  0.018792  0.971735  0.461670  1
  Br  Br52  1  0.247894  0.736485  0.235270  1
  Br  Br53  1  0.533356  0.998422  0.981928  1
  Br  Br54  1  0.014821  0.534682  0.964938  1
  Br  Br55  1  0.525097  0.468043  0.490081  1
