# generated using pymatgen
data_Li6PSe5Br
_symmetry_space_group_name_H-M   'P 1'
_cell_length_a   10.70801353
_cell_length_b   10.70801353
_cell_length_c   11.25004984
_cell_angle_alpha   90.00000000
_cell_angle_beta   90.00000000
_cell_angle_gamma   86.68852453
_symmetry_Int_Tables_number   1
_chemical_formula_structural   Li6PSe5Br
_chemical_formula_sum   'Li24 P4 Se20 Br4'
_cell_volume   1287.79432505
_cell_formula_units_Z   4
loop_
 _symmetry_equiv_pos_site_id
 _symmetry_equiv_pos_as_xyz
  1  'x, y, z'
loop_
 _atom_site_type_symbol
 _atom_site_label
 _atom_site_symmetry_multiplicity
 _atom_site_fract_x
 _atom_site_fract_y
 _atom_site_fract_z
 _atom_site_occupancy
  Br  Br0  1  0.000000  0.000000  0.400259  1
  Br  Br1  1  0.500000  0.500000  0.400259  1
  Br  Br2  1  0.250000  0.250000  0.748576  1
  Br  Br3  1  0.750000  0.750000  0.748576  1
  Li  Li4  1  0.003322  0.308810  0.801060  1
  Li  Li5  1  0.519850  0.286809  0.275387  1
  Li  Li6  1  -0.003322  0.691190  0.801060  1
  Li  Li7  1  0.480150  0.713191  0.275387  1
  Li  Li8  1  0.980150  0.213191  0.275387  1
  Li  Li9  1  0.496678  0.191190  0.801060  1
  Li  Li10  1  0.019850  0.786809  0.275387  1
  Li  Li11  1  0.503322  0.808810  0.801060  1
  Li  Li12  1  0.786809  0.019850  0.275387  1
  Li  Li13  1  0.808810  0.503322  0.801060  1
  Li  Li14  1  0.691190  -0.003322  0.801060  1
  Li  Li15  1  0.713191  0.480150  0.275387  1
  Li  Li16  1  0.213191  0.980150  0.275387  1
  Li  Li17  1  0.191190  0.496678  0.801060  1
  Li  Li18  1  0.308810  0.003322  0.801060  1
  Li  Li19  1  0.286809  0.519850  0.275387  1
  Li  Li20  1  0.250000  0.750000  0.029251  1
  Li  Li21  1  0.250000  0.250000  0.523123  1
  Li  Li22  1  0.750000  0.750000  -0.026279  1
  Li  Li23  1  0.750000  0.250000  0.466754  1
  Li  Li24  1  0.250000  0.250000  -0.026279  1
  Li  Li25  1  0.250000  0.750000  0.466754  1
  Li  Li26  1  0.750000  0.250000  0.029251  1
  Li  Li27  1  0.750000  0.750000  0.523123  1
  P  P28  1  0.000000  0.000000  -0.012532  1
  P  P29  1  0.000000  0.500000  0.491703  1
  P  P30  1  0.500000  0.000000  0.491703  1
  P  P31  1  0.500000  0.500000  -0.012532  1
  Se  Se32  1  0.000000  0.500000  -0.075574  1
  Se  Se33  1  0.500000  0.000000  -0.075574  1
  Se  Se34  1  0.750000  0.250000  0.249507  1
  Se  Se35  1  0.250000  0.750000  0.249507  1
  Se  Se36  1  0.117845  0.117845  0.099408  1
  Se  Se37  1  0.118417  0.618417  0.603158  1
  Se  Se38  1  0.618417  0.118417  0.603158  1
  Se  Se39  1  0.617845  0.617845  0.099408  1
  Se  Se40  1  0.882155  0.882155  0.099408  1
  Se  Se41  1  0.881583  0.381583  0.603158  1
  Se  Se42  1  0.381583  0.881583  0.603158  1
  Se  Se43  1  0.382155  0.382155  0.099408  1
  Se  Se44  1  0.877500  0.122500  0.872263  1
  Se  Se45  1  0.877417  0.622583  0.374882  1
  Se  Se46  1  0.377417  0.122583  0.374882  1
  Se  Se47  1  0.377500  0.622500  0.872263  1
  Se  Se48  1  0.122500  0.877500  0.872263  1
  Se  Se49  1  0.122583  0.377417  0.374882  1
  Se  Se50  1  0.622583  0.877417  0.374882  1
  Se  Se51  1  0.622500  0.377500  0.872263  1
