# generated using pymatgen
data_Li7SnS5Cl
_symmetry_space_group_name_H-M   'P 1'
_cell_length_a   10.56225084
_cell_length_b   10.63082457
_cell_length_c   10.46772694
_cell_angle_alpha   92.02788232
_cell_angle_beta   89.26582246
_cell_angle_gamma   89.34553035
_symmetry_Int_Tables_number   1
_chemical_formula_structural   Li7SnS5Cl
_chemical_formula_sum   'Li28 Sn4 S20 Cl4'
_cell_volume   1174.45779544
_cell_formula_units_Z   4
loop_
 _symmetry_equiv_pos_site_id
 _symmetry_equiv_pos_as_xyz
  1  'x, y, z'
loop_
 _atom_site_type_symbol
 _atom_site_label
 _atom_site_symmetry_multiplicity
 _atom_site_fract_x
 _atom_site_fract_y
 _atom_site_fract_z
 _atom_site_occupancy
  Li  Li0  1  0.002834  0.317776  0.810944  1
  Li  Li1  1  0.982119  0.740662  0.764604  1
  Li  Li2  1  0.018914  0.183331  0.321008  1
  Li  Li3  1  0.036001  0.800667  0.283230  1
  Li  Li4  1  0.835206  0.988353  0.329894  1
  Li  Li5  1  0.711966  0.997295  0.787081  1
  Li  Li6  1  0.212295  0.992291  0.305625  1
  Li  Li7  1  0.244088  0.756492  0.991899  1
  Li  Li8  1  0.760175  0.767970  0.964688  1
  Li  Li9  1  0.229909  0.297798  0.984200  1
  Li  Li10  1  0.752589  0.526964  0.720228  1
  Li  Li11  1  0.690064  0.593108  0.318794  1
  Li  Li12  1  0.231245  0.485030  0.781029  1
  Li  Li13  1  0.228139  0.214203  0.523024  1
  Li  Li14  1  0.723807  0.292455  0.480226  1
  Li  Li15  1  0.186452  0.836910  0.562419  1
  Li  Li16  1  0.398607  0.107529  0.131522  1
  Li  Li17  1  0.544990  0.839715  0.162499  1
  Li  Li18  1  0.475261  0.296095  0.697204  1
  Li  Li19  1  0.519289  0.810586  0.827544  1
  Li  Li20  1  0.397797  0.371065  0.334164  1
  Li  Li21  1  0.042431  0.477573  0.194804  1
  Li  Li22  1  0.570275  0.712887  0.566559  1
  Li  Li23  1  0.849422  0.802264  0.512814  1
  Li  Li24  1  0.554084  0.215514  0.952076  1
  Li  Li25  1  0.746842  0.063548  0.073311  1
  Li  Li26  1  0.326906  0.031507  0.794183  1
  Li  Li27  1  0.022998  0.057385  0.686122  1
  Sn  Sn28  1  0.025231  0.012868  0.994630  1
  Sn  Sn29  1  0.025397  0.499018  0.499147  1
  Sn  Sn30  1  0.522613  0.001958  0.497707  1
  Sn  Sn31  1  0.518303  0.507062  0.986074  1
  S  S32  1  0.159906  0.134337  0.130852  1
  S  S33  1  0.890090  0.880492  0.118691  1
  S  S34  1  0.880521  0.135023  0.872476  1
  S  S35  1  0.142891  0.889784  0.835871  1
  S  S36  1  0.139482  0.634000  0.639534  1
  S  S37  1  0.889065  0.368956  0.618575  1
  S  S38  1  0.914751  0.621288  0.343086  1
  S  S39  1  0.157848  0.363644  0.362123  1
  S  S40  1  0.639683  0.143552  0.628326  1
  S  S41  1  0.402127  0.867017  0.632289  1
  S  S42  1  0.385606  0.125249  0.367265  1
  S  S43  1  0.656645  0.850517  0.378170  1
  S  S44  1  0.649647  0.644798  0.108984  1
  S  S45  1  0.418680  0.342662  0.106058  1
  S  S46  1  0.381380  0.633932  0.862482  1
  S  S47  1  0.637846  0.379706  0.834886  1
  S  S48  1  0.249969  0.246603  0.748932  1
  S  S49  1  0.753791  0.759040  0.730890  1
  S  S50  1  0.031360  0.974353  0.460148  1
  S  S51  1  0.544943  0.993022  0.983641  1
  Cl  Cl52  1  0.797212  0.197558  0.272310  1
  Cl  Cl53  1  0.253956  0.789787  0.212992  1
  Cl  Cl54  1  0.073083  0.468262  0.972469  1
  Cl  Cl55  1  0.563267  0.484320  0.465476  1
