# generated using pymatgen
data_Li7SiSe5Cl
_symmetry_space_group_name_H-M   'P 1'
_cell_length_a   10.83351901
_cell_length_b   10.58762151
_cell_length_c   10.58762151
_cell_angle_alpha   93.60426653
_cell_angle_beta   88.76443653
_cell_angle_gamma   88.76443653
_symmetry_Int_Tables_number   1
_chemical_formula_structural   Li7SiSe5Cl
_chemical_formula_sum   'Li28 Si4 Se20 Cl4'
_cell_volume   1211.40934192
_cell_formula_units_Z   4
loop_
 _symmetry_equiv_pos_site_id
 _symmetry_equiv_pos_as_xyz
  1  'x, y, z'
loop_
 _atom_site_type_symbol
 _atom_site_label
 _atom_site_symmetry_multiplicity
 _atom_site_fract_x
 _atom_site_fract_y
 _atom_site_fract_z
 _atom_site_occupancy
  Li  Li0  1  0.018083  0.295925  0.783308  1
  Li  Li1  1  0.969057  0.746834  0.808344  1
  Li  Li2  1  0.969057  0.246834  0.308344  1
  Li  Li3  1  0.018083  0.795925  0.283308  1
  Li  Li4  1  0.765886  0.009289  0.230525  1
  Li  Li5  1  0.709510  0.989863  0.778277  1
  Li  Li6  1  0.213063  0.972168  0.279430  1
  Li  Li7  1  0.265886  0.730525  0.009289  1
  Li  Li8  1  0.713063  0.779430  0.972168  1
  Li  Li9  1  0.209510  0.278277  0.989863  1
  Li  Li10  1  0.765886  0.509289  0.730525  1
  Li  Li11  1  0.709510  0.489863  0.278277  1
  Li  Li12  1  0.213063  0.472168  0.779430  1
  Li  Li13  1  0.265886  0.230525  0.509289  1
  Li  Li14  1  0.713063  0.279430  0.472168  1
  Li  Li15  1  0.209510  0.778277  0.489863  1
  Li  Li16  1  0.518083  0.283308  0.295925  1
  Li  Li17  1  0.469057  0.808344  0.246834  1
  Li  Li18  1  0.469057  0.308344  0.746834  1
  Li  Li19  1  0.518083  0.783308  0.795925  1
  Li  Li20  1  0.355718  0.523185  0.300688  1
  Li  Li21  1  0.090896  0.535531  0.197353  1
  Li  Li22  1  0.590896  0.697353  0.535531  1
  Li  Li23  1  0.855718  0.800688  0.523185  1
  Li  Li24  1  0.590896  0.197353  0.035531  1
  Li  Li25  1  0.855718  0.300688  0.023185  1
  Li  Li26  1  0.355718  0.023185  0.800688  1
  Li  Li27  1  0.090896  0.035531  0.697353  1
  Si  Si28  1  0.018970  0.995826  0.994827  1
  Si  Si29  1  0.018970  0.495826  0.494827  1
  Si  Si30  1  0.518970  0.994827  0.495826  1
  Si  Si31  1  0.518970  0.494827  0.995826  1
  Se  Se32  1  0.109541  0.127620  0.140493  1
  Se  Se33  1  0.898478  0.851995  0.089691  1
  Se  Se34  1  0.902552  0.107136  0.857606  1
  Se  Se35  1  0.162076  0.882999  0.867536  1
  Se  Se36  1  0.109541  0.627620  0.640493  1
  Se  Se37  1  0.898478  0.351995  0.589691  1
  Se  Se38  1  0.902552  0.607136  0.357606  1
  Se  Se39  1  0.162076  0.382999  0.367536  1
  Se  Se40  1  0.609541  0.140493  0.627620  1
  Se  Se41  1  0.402552  0.857606  0.607136  1
  Se  Se42  1  0.398478  0.089691  0.351995  1
  Se  Se43  1  0.662076  0.867536  0.382999  1
  Se  Se44  1  0.609541  0.640493  0.127620  1
  Se  Se45  1  0.402552  0.357606  0.107136  1
  Se  Se46  1  0.398478  0.589691  0.851995  1
  Se  Se47  1  0.662076  0.367536  0.882999  1
  Se  Se48  1  0.244617  0.230783  0.744853  1
  Se  Se49  1  0.744617  0.744853  0.730783  1
  Se  Se50  1  0.744617  0.244853  0.230783  1
  Se  Se51  1  0.244617  0.730783  0.244853  1
  Cl  Cl52  1  0.041554  0.943288  0.477515  1
  Cl  Cl53  1  0.541554  0.977515  0.943288  1
  Cl  Cl54  1  0.041554  0.443288  0.977515  1
  Cl  Cl55  1  0.541554  0.477515  0.443288  1
