# generated using pymatgen
data_Li7SnS5Cl
_symmetry_space_group_name_H-M   'P 1'
_cell_length_a   10.47891721
_cell_length_b   10.54672276
_cell_length_c   10.68024219
_cell_angle_alpha   89.45366652
_cell_angle_beta   89.20675957
_cell_angle_gamma   90.28089385
_symmetry_Int_Tables_number   1
_chemical_formula_structural   Li7SnS5Cl
_chemical_formula_sum   'Li28 Sn4 S20 Cl4'
_cell_volume   1180.17977551
_cell_formula_units_Z   4
loop_
 _symmetry_equiv_pos_site_id
 _symmetry_equiv_pos_as_xyz
  1  'x, y, z'
loop_
 _atom_site_type_symbol
 _atom_site_label
 _atom_site_symmetry_multiplicity
 _atom_site_fract_x
 _atom_site_fract_y
 _atom_site_fract_z
 _atom_site_occupancy
  Li  Li0  1  0.038495  0.291460  0.808792  1
  Li  Li1  1  0.985986  0.773103  0.728905  1
  Li  Li2  1  0.080931  0.318116  0.159442  1
  Li  Li3  1  0.922286  0.872410  0.341564  1
  Li  Li4  1  0.684710  0.963943  0.174525  1
  Li  Li5  1  0.664537  0.070084  0.847818  1
  Li  Li6  1  0.278164  0.966580  0.233657  1
  Li  Li7  1  0.348623  0.787563  0.005626  1
  Li  Li8  1  0.691215  0.770556  0.995345  1
  Li  Li9  1  0.250606  0.205631  0.970071  1
  Li  Li10  1  0.821404  0.474166  0.820930  1
  Li  Li11  1  0.868408  0.574771  0.133670  1
  Li  Li12  1  0.365217  0.586749  0.644746  1
  Li  Li13  1  0.219104  0.193515  0.522320  1
  Li  Li14  1  0.678384  0.327862  0.548236  1
  Li  Li15  1  0.177443  0.808818  0.551979  1
  Li  Li16  1  0.397602  0.328612  0.343812  1
  Li  Li17  1  0.517066  0.701291  0.280141  1
  Li  Li18  1  0.460709  0.268300  0.711644  1
  Li  Li19  1  0.531093  0.776566  0.796669  1
  Li  Li20  1  0.147169  0.575135  0.886050  1
  Li  Li21  1  0.135991  0.583071  0.263649  1
  Li  Li22  1  0.857264  0.095546  0.617521  1
  Li  Li23  1  0.806687  0.764975  0.531859  1
  Li  Li24  1  0.533453  0.164314  0.069175  1
  Li  Li25  1  0.821503  0.271585  0.006341  1
  Li  Li26  1  0.347087  0.984468  0.804684  1
  Li  Li27  1  0.089904  0.022460  0.727629  1
  Sn  Sn28  1  0.006340  0.967302  0.004844  1
  Sn  Sn29  1  0.018808  0.480568  0.506597  1
  Sn  Sn30  1  0.514027  0.976209  0.497721  1
  Sn  Sn31  1  0.507945  0.464307  0.001167  1
  S  S32  1  0.129746  0.097760  0.138073  1
  S  S33  1  0.867933  0.829177  0.122476  1
  S  S34  1  0.895763  0.102187  0.857421  1
  S  S35  1  0.151183  0.842523  0.878155  1
  S  S36  1  0.132776  0.605790  0.655988  1
  S  S37  1  0.885744  0.342475  0.632611  1
  S  S38  1  0.922533  0.625730  0.360280  1
  S  S39  1  0.163251  0.372664  0.366561  1
  S  S40  1  0.627451  0.119479  0.630806  1
  S  S41  1  0.391844  0.832154  0.630585  1
  S  S42  1  0.369516  0.099642  0.377146  1
  S  S43  1  0.657303  0.848318  0.375437  1
  S  S44  1  0.639128  0.591309  0.131964  1
  S  S45  1  0.370406  0.322062  0.116623  1
  S  S46  1  0.385359  0.606342  0.872641  1
  S  S47  1  0.633565  0.326113  0.869163  1
  S  S48  1  0.246149  0.188410  0.748858  1
  S  S49  1  0.985757  0.924540  0.551855  1
  S  S50  1  0.524827  0.940311  0.974492  1
  S  S51  1  0.988258  0.440058  0.990125  1
  Cl  Cl52  1  0.759759  0.701653  0.765619  1
  Cl  Cl53  1  0.721216  0.180062  0.185107  1
  Cl  Cl54  1  0.296386  0.742674  0.230254  1
  Cl  Cl55  1  0.485987  0.434309  0.526414  1
