# generated using pymatgen
data_Li7SnSe5Br
_symmetry_space_group_name_H-M   'P 1'
_cell_length_a   10.99331707
_cell_length_b   11.00993510
_cell_length_c   11.00993510
_cell_angle_alpha   89.52992896
_cell_angle_beta   89.26768431
_cell_angle_gamma   89.26768431
_symmetry_Int_Tables_number   1
_chemical_formula_structural   Li7SnSe5Br
_chemical_formula_sum   'Li28 Sn4 Se20 Br4'
_cell_volume   1332.33451179
_cell_formula_units_Z   4
loop_
 _symmetry_equiv_pos_site_id
 _symmetry_equiv_pos_as_xyz
  1  'x, y, z'
loop_
 _atom_site_type_symbol
 _atom_site_label
 _atom_site_symmetry_multiplicity
 _atom_site_fract_x
 _atom_site_fract_y
 _atom_site_fract_z
 _atom_site_occupancy
  Li  Li0  1  0.030498  0.304105  0.786138  1
  Li  Li1  1  0.017389  0.776399  0.668753  1
  Li  Li2  1  0.017389  0.276399  0.168753  1
  Li  Li3  1  0.030498  0.804105  0.286138  1
  Li  Li4  1  0.823571  0.008196  0.309999  1
  Li  Li5  1  0.715666  -0.012059  0.783015  1
  Li  Li6  1  0.147826  0.087834  0.361042  1
  Li  Li7  1  0.323571  0.809999  0.008196  1
  Li  Li8  1  0.647826  0.861042  0.087834  1
  Li  Li9  1  0.215666  0.283015  -0.012059  1
  Li  Li10  1  0.823571  0.508196  0.809999  1
  Li  Li11  1  0.715666  0.487941  0.283015  1
  Li  Li12  1  0.147826  0.587834  0.861042  1
  Li  Li13  1  0.323571  0.309999  0.508196  1
  Li  Li14  1  0.647826  0.361042  0.587834  1
  Li  Li15  1  0.215666  0.783015  0.487941  1
  Li  Li16  1  0.530498  0.286138  0.304105  1
  Li  Li17  1  0.517389  0.668753  0.276399  1
  Li  Li18  1  0.517389  0.168753  0.776399  1
  Li  Li19  1  0.530498  0.786138  0.804105  1
  Li  Li20  1  0.329620  0.474185  0.293655  1
  Li  Li21  1  0.063382  0.534221  0.183249  1
  Li  Li22  1  0.563382  0.683249  0.534221  1
  Li  Li23  1  0.829620  0.793655  0.474185  1
  Li  Li24  1  0.563382  0.183249  0.034221  1
  Li  Li25  1  0.829620  0.293655  0.974185  1
  Li  Li26  1  0.329620  0.974185  0.793655  1
  Li  Li27  1  0.063382  0.034221  0.683249  1
  Sn  Sn28  1  0.012242  0.988575  0.993941  1
  Sn  Sn29  1  0.012242  0.488575  0.493941  1
  Sn  Sn30  1  0.512242  0.993941  0.488575  1
  Sn  Sn31  1  0.512242  0.493941  0.988575  1
  Se  Se32  1  0.162526  0.099454  0.123271  1
  Se  Se33  1  0.874985  0.867441  0.130854  1
  Se  Se34  1  0.899718  0.115048  0.835276  1
  Se  Se35  1  0.140698  0.850914  0.852630  1
  Se  Se36  1  0.162526  0.599454  0.623271  1
  Se  Se37  1  0.874985  0.367441  0.630854  1
  Se  Se38  1  0.899718  0.615048  0.335276  1
  Se  Se39  1  0.140698  0.350914  0.352630  1
  Se  Se40  1  0.662526  0.123271  0.599454  1
  Se  Se41  1  0.399718  0.835276  0.615048  1
  Se  Se42  1  0.374985  0.130854  0.367441  1
  Se  Se43  1  0.640698  0.852630  0.350914  1
  Se  Se44  1  0.662526  0.623271  0.099454  1
  Se  Se45  1  0.399718  0.335276  0.115048  1
  Se  Se46  1  0.374985  0.630854  0.867441  1
  Se  Se47  1  0.640698  0.352630  0.850914  1
  Se  Se48  1  0.022706  0.928806  0.480195  1
  Se  Se49  1  0.522706  0.980195  0.928806  1
  Se  Se50  1  0.022706  0.428806  0.980195  1
  Se  Se51  1  0.522706  0.480195  0.428806  1
  Br  Br52  1  0.259176  0.201444  0.736309  1
  Br  Br53  1  0.759176  0.736309  0.701444  1
  Br  Br54  1  0.759176  0.236309  0.201444  1
  Br  Br55  1  0.259176  0.701444  0.236309  1
