# generated using pymatgen
data_Li7GeS5Cl
_symmetry_space_group_name_H-M   'P 1'
_cell_length_a   10.32848834
_cell_length_b   10.33069783
_cell_length_c   10.27512824
_cell_angle_alpha   92.55028918
_cell_angle_beta   89.63494620
_cell_angle_gamma   89.43464779
_symmetry_Int_Tables_number   1
_chemical_formula_structural   Li7GeS5Cl
_chemical_formula_sum   'Li28 Ge4 S20 Cl4'
_cell_volume   1095.19657869
_cell_formula_units_Z   4
loop_
 _symmetry_equiv_pos_site_id
 _symmetry_equiv_pos_as_xyz
  1  'x, y, z'
loop_
 _atom_site_type_symbol
 _atom_site_label
 _atom_site_symmetry_multiplicity
 _atom_site_fract_x
 _atom_site_fract_y
 _atom_site_fract_z
 _atom_site_occupancy
  Li  Li0  1  0.005651  0.323163  0.810599  1
  Li  Li1  1  0.980815  0.734409  0.771461  1
  Li  Li2  1  0.017223  0.189422  0.316382  1
  Li  Li3  1  0.034916  0.802404  0.285985  1
  Li  Li4  1  0.831001  0.000456  0.330483  1
  Li  Li5  1  0.717382  0.996287  0.787083  1
  Li  Li6  1  0.215194  0.993540  0.302310  1
  Li  Li7  1  0.226541  0.722674  0.997821  1
  Li  Li8  1  0.746634  0.776442  0.971404  1
  Li  Li9  1  0.227887  0.302528  0.983544  1
  Li  Li10  1  0.747375  0.529474  0.712421  1
  Li  Li11  1  0.703670  0.535085  0.298935  1
  Li  Li12  1  0.235177  0.481670  0.770246  1
  Li  Li13  1  0.217744  0.201455  0.521715  1
  Li  Li14  1  0.723595  0.288234  0.483514  1
  Li  Li15  1  0.191337  0.832010  0.543278  1
  Li  Li16  1  0.402884  0.112251  0.134825  1
  Li  Li17  1  0.516786  0.829924  0.169164  1
  Li  Li18  1  0.475463  0.303212  0.690638  1
  Li  Li19  1  0.520694  0.806311  0.817982  1
  Li  Li20  1  0.395778  0.377330  0.337164  1
  Li  Li21  1  0.046164  0.483391  0.198664  1
  Li  Li22  1  0.574286  0.718338  0.551282  1
  Li  Li23  1  0.847236  0.809644  0.516557  1
  Li  Li24  1  0.543710  0.214977  0.944332  1
  Li  Li25  1  0.748873  0.072556  0.071080  1
  Li  Li26  1  0.336236  0.026283  0.808689  1
  Li  Li27  1  0.047836  0.059869  0.699582  1
  Ge  Ge28  1  0.027055  0.010204  0.995652  1
  Ge  Ge29  1  0.025076  0.500048  0.497532  1
  Ge  Ge30  1  0.521465  0.004446  0.498664  1
  Ge  Ge31  1  0.521950  0.504855  0.983633  1
  S  S32  1  0.155479  0.131589  0.123901  1
  S  S33  1  0.898209  0.887383  0.116055  1
  S  S34  1  0.892619  0.132671  0.881507  1
  S  S35  1  0.141937  0.887244  0.851690  1
  S  S36  1  0.135877  0.630607  0.629414  1
  S  S37  1  0.897180  0.375914  0.611718  1
  S  S38  1  0.913958  0.617468  0.353774  1
  S  S39  1  0.154698  0.371437  0.369794  1
  S  S40  1  0.634311  0.137356  0.626581  1
  S  S41  1  0.403586  0.875007  0.622361  1
  S  S42  1  0.393308  0.124946  0.374061  1
  S  S43  1  0.647788  0.865892  0.377821  1
  S  S44  1  0.639088  0.636119  0.111699  1
  S  S45  1  0.420607  0.354527  0.102364  1
  S  S46  1  0.390023  0.623621  0.865699  1
  S  S47  1  0.641014  0.384034  0.843771  1
  S  S48  1  0.247034  0.242369  0.750460  1
  S  S49  1  0.751890  0.761236  0.731203  1
  S  S50  1  0.034194  0.985231  0.461378  1
  S  S51  1  0.542643  0.989903  0.982261  1
  Cl  Cl52  1  0.792357  0.217058  0.267508  1
  Cl  Cl53  1  0.260646  0.779495  0.222061  1
  Cl  Cl54  1  0.074273  0.491597  0.973740  1
  Cl  Cl55  1  0.563648  0.480184  0.472336  1
