data_c00005_contcar
_audit_creation_date              2019-04-10
_audit_creation_method            'Materials Studio'
_symmetry_space_group_name_H-M    'P1'
_symmetry_Int_Tables_number       1
_symmetry_cell_setting            triclinic
loop_
_symmetry_equiv_pos_as_xyz
  x,y,z
_cell_length_a                    10.2469
_cell_length_b                    10.2469
_cell_length_c                    10.2469
_cell_angle_alpha                 88.5296
_cell_angle_beta                  91.4704
_cell_angle_gamma                 88.5296
loop_
_atom_site_label
_atom_site_type_symbol
_atom_site_fract_x
_atom_site_fract_y
_atom_site_fract_z
_atom_site_U_iso_or_equiv
_atom_site_adp_type
_atom_site_occupancy
Cl1    Cl    0.24939   0.25061   0.74939   0.00000  Uiso   1.00
Cl2    Cl    0.38384   0.49090   0.50910   0.00000  Uiso   1.00
Cl3    Cl    0.00910   0.11616   0.50910   0.00000  Uiso   1.00
Cl4    Cl    0.00910   0.49090  -0.11616   0.00000  Uiso   1.00
Li5    Li    0.00424   0.26956   0.73044   0.00000  Uiso   1.00
Li6    Li    0.52191   0.21693   0.22283   0.00000  Uiso   1.00
Li7    Li    0.98023   0.70796   0.79072   0.00000  Uiso   1.00
Li8    Li    0.48989   0.75233   0.24767   0.00000  Uiso   1.00
Li9    Li    0.98023   0.20928   0.29205   0.00000  Uiso   1.00
Li10   Li    0.49449   0.19671   0.80329   0.00000  Uiso   1.00
Li11   Li    0.04002   0.74812   0.25188   0.00000  Uiso   1.00
Li12   Li    0.52191   0.77717   0.78307   0.00000  Uiso   1.00
Li13   Li    0.74767   0.01012   0.24767   0.00000  Uiso   1.00
Li14   Li    0.79205   0.51977   0.79072   0.00000  Uiso   1.00
Li15   Li    0.72283   0.97810   0.78307   0.00000  Uiso   1.00
Li16   Li    0.75188   0.45998   0.25188   0.00000  Uiso   1.00
Li17   Li    0.28307   0.97810   0.22283   0.00000  Uiso   1.00
Li18   Li    0.23044   0.49576   0.73044   0.00000  Uiso   1.00
Li19   Li    0.30329   0.00551   0.80329   0.00000  Uiso   1.00
Li20   Li    0.29072   0.51977   0.29205   0.00000  Uiso   1.00
Li21   Li    0.28307   0.77717   0.02191   0.00000  Uiso   1.00
Li22   Li    0.23044   0.26956   0.50424   0.00000  Uiso   1.00
Li23   Li    0.74767   0.75233   0.98989   0.00000  Uiso   1.00
Li24   Li    0.79205   0.20928   0.48023   0.00000  Uiso   1.00
Li25   Li    0.30329   0.19671  -0.00551   0.00000  Uiso   1.00
Li26   Li    0.29072   0.70796   0.48023   0.00000  Uiso   1.00
Li27   Li    0.72283   0.21693   0.02191   0.00000  Uiso   1.00
Li28   Li    0.75188   0.74812   0.54002   0.00000  Uiso   1.00
P29    P     0.00285   0.00357  -0.00357   0.00000  Uiso   1.00
P30    P    -0.02415   0.52416   0.47585   0.00000  Uiso   1.00
P31    P     0.49643   0.00357   0.50285   0.00000  Uiso   1.00
P32    P     0.49643   0.49716  -0.00357   0.00000  Uiso   1.00
S33    S     0.11533   0.11798   0.11353   0.00000  Uiso   1.00
S34    S     0.08597   0.64673   0.58597   0.00000  Uiso   1.00
S35    S     0.61353   0.11798   0.61534   0.00000  Uiso   1.00
S36    S     0.61519   0.60706   0.11519   0.00000  Uiso   1.00
S37    S     0.89294   0.88481   0.11519   0.00000  Uiso   1.00
S38    S     0.85327   0.41403   0.58597   0.00000  Uiso   1.00
S39    S     0.38202   0.88647   0.61533   0.00000  Uiso   1.00
S40    S     0.38202   0.38467   0.11353   0.00000  Uiso   1.00
S41    S     0.88137   0.12113   0.87887   0.00000  Uiso   1.00
S42    S     0.85637   0.64363   0.35637   0.00000  Uiso   1.00
S43    S     0.37887   0.12113   0.38137   0.00000  Uiso   1.00
S44    S     0.37887   0.61863   0.87887   0.00000  Uiso   1.00
S45    S     0.11533   0.88647   0.88202   0.00000  Uiso   1.00
S46    S     0.08597   0.41403   0.35327   0.00000  Uiso   1.00
S47    S     0.61519   0.88481   0.39294   0.00000  Uiso   1.00
S48    S     0.61353   0.38467   0.88202   0.00000  Uiso   1.00
S49    S     0.74837   0.75163   0.76647   0.00000  Uiso   1.00
S50    S     0.26647   0.75163   0.24837   0.00000  Uiso   1.00
S51    S     0.74837   0.23353   0.24837   0.00000  Uiso   1.00
S52    S     0.47125   0.02875  -0.02875   0.00000  Uiso   1.00
loop_
_geom_bond_atom_site_label_1
_geom_bond_atom_site_label_2
_geom_bond_distance
_geom_bond_site_symmetry_2
_ccdc_geom_bond_type
P29    S33     2.053   .     D
P29    S37     2.072   1_445 S
P29    S41     2.055   1_454 S
P29    S45     2.053   1_544 S
P30    S34     2.050   .     D
P30    S38     2.050   1_455 S
P30    S42     2.065   1_455 S
P30    S46     2.050   .     S
P31    S35     2.053   .     S
P31    S39     2.053   1_545 S
P31    S43     2.055   .     S
P31    S47     2.072   1_545 D
P32    S36     2.072   .     D
P32    S40     2.053   .     S
P32    S44     2.055   1_554 S
P32    S48     2.053   1_554 S
S37    P29     2.072   1_665 S
S38    P30     2.050   1_655 S
S39    P31     2.053   1_565 S
S41    P29     2.055   1_656 S
S42    P30     2.065   1_655 S
S44    P32     2.055   1_556 S
S45    P29     2.053   1_566 S
S47    P31     2.072   1_565 D
S48    P32     2.053   1_556 S
