# generated using pymatgen
data_Li21P4S17I7
_symmetry_space_group_name_H-M   'P 1'
_cell_length_a   10.20107189
_cell_length_b   10.55505078
_cell_length_c   10.35485176
_cell_angle_alpha   89.79911968
_cell_angle_beta   89.12548077
_cell_angle_gamma   89.77398044
_symmetry_Int_Tables_number   1
_chemical_formula_structural   Li21P4S17I7
_chemical_formula_sum   'Li21 P4 S17 I7'
_cell_volume   1114.79105006
_cell_formula_units_Z   1
loop_
 _symmetry_equiv_pos_site_id
 _symmetry_equiv_pos_as_xyz
  1  'x, y, z'
loop_
 _atom_site_type_symbol
 _atom_site_label
 _atom_site_symmetry_multiplicity
 _atom_site_fract_x
 _atom_site_fract_y
 _atom_site_fract_z
 _atom_site_occupancy
  I  I0  1  0.261928  0.250981  0.748720  1
  I  I1  1  0.765406  0.745665  0.737882  1
  I  I2  1  0.748090  0.245478  0.241846  1
  I  I3  1  0.009321  -0.011581  0.017688  1
  I  I4  1  0.002385  0.484620  0.478937  1
  I  I5  1  0.499459  -0.010475  0.509679  1
  I  I6  1  0.509178  0.523634  -0.005574  1
  Li  Li7  1  0.015570  0.319531  0.687676  1
  Li  Li8  1  0.012358  0.813846  0.815185  1
  Li  Li9  1  0.007981  0.293559  0.291221  1
  Li  Li10  1  0.009212  0.774151  0.224929  1
  Li  Li11  1  0.697412  -0.001317  0.305962  1
  Li  Li12  1  0.707073  0.005200  0.691781  1
  Li  Li13  1  0.228123  0.966421  0.227627  1
  Li  Li14  1  0.304621  0.001683  0.714702  1
  Li  Li15  1  0.286018  0.710979  0.031536  1
  Li  Li16  1  0.708246  0.716367  0.994621  1
  Li  Li17  1  0.199360  0.183667  -0.000794  1
  Li  Li18  1  0.813405  0.176196  -0.010144  1
  Li  Li19  1  0.696233  0.493034  0.791805  1
  Li  Li20  1  0.669088  0.493154  0.213747  1
  Li  Li21  1  0.317614  0.496824  0.802144  1
  Li  Li22  1  0.219518  0.520932  0.277235  1
  Li  Li23  1  0.335760  0.214544  0.485988  1
  Li  Li24  1  0.783342  0.314006  0.494483  1
  Li  Li25  1  0.199306  0.725969  0.480037  1
  Li  Li26  1  0.465223  0.762693  0.282258  1
  Li  Li27  1  0.503861  0.778709  0.693819  1
  P  P28  1  0.006632  0.012482  0.499910  1
  P  P29  1  0.500498  -0.008371  0.002237  1
  P  P30  1  0.000897  0.496341  -0.001325  1
  P  P31  1  0.497576  0.507622  0.493025  1
  S  S32  1  0.237322  0.743747  0.253766  1
  S  S33  1  0.133422  0.118802  0.385616  1
  S  S34  1  0.889820  0.896681  0.397147  1
  S  S35  1  0.891391  0.132779  0.613332  1
  S  S36  1  0.119473  0.898106  0.618922  1
  S  S37  1  0.385134  0.102923  0.117483  1
  S  S38  1  0.389580  0.871838  0.886573  1
  S  S39  1  0.610078  0.877305  0.125344  1
  S  S40  1  0.615656  0.102003  0.885201  1
  S  S41  1  0.125135  0.384049  0.106035  1
  S  S42  1  0.888552  0.381004  0.882846  1
  S  S43  1  0.118108  0.612411  0.885158  1
  S  S44  1  0.880709  0.603066  0.117356  1
  S  S45  1  0.368110  0.614988  0.608213  1
  S  S46  1  0.400142  0.397912  0.363820  1
  S  S47  1  0.596306  0.386868  0.614352  1
  S  S48  1  0.620369  0.628973  0.396403  1
