# generated using pymatgen
data_Li7GeSe5Cl
_symmetry_space_group_name_H-M   'P 1'
_cell_length_a   10.72503551
_cell_length_b   11.02753870
_cell_length_c   10.35427262
_cell_angle_alpha   91.12382488
_cell_angle_beta   86.55782790
_cell_angle_gamma   91.26467938
_symmetry_Int_Tables_number   1
_chemical_formula_structural   Li7GeSe5Cl
_chemical_formula_sum   'Li28 Ge4 Se20 Cl4'
_cell_volume   1221.89522689
_cell_formula_units_Z   4
loop_
 _symmetry_equiv_pos_site_id
 _symmetry_equiv_pos_as_xyz
  1  'x, y, z'
loop_
 _atom_site_type_symbol
 _atom_site_label
 _atom_site_symmetry_multiplicity
 _atom_site_fract_x
 _atom_site_fract_y
 _atom_site_fract_z
 _atom_site_occupancy
  Li  Li0  1  0.027520  0.261976  0.800074  1
  Li  Li1  1  0.966080  0.795854  0.703694  1
  Li  Li2  1  0.977928  0.293122  0.209910  1
  Li  Li3  1  0.998165  0.775421  0.294526  1
  Li  Li4  1  0.862974  0.013531  0.268002  1
  Li  Li5  1  0.691146  0.952582  0.812528  1
  Li  Li6  1  0.188247  0.967722  0.317020  1
  Li  Li7  1  0.311206  0.788276  0.015615  1
  Li  Li8  1  0.631029  0.801853  0.098374  1
  Li  Li9  1  0.204251  0.252367  0.007133  1
  Li  Li10  1  0.882326  0.484179  0.787814  1
  Li  Li11  1  0.831674  0.558690  0.113585  1
  Li  Li12  1  0.178354  0.466767  0.830193  1
  Li  Li13  1  0.299174  0.265965  0.513898  1
  Li  Li14  1  0.671883  0.321869  0.588991  1
  Li  Li15  1  0.183928  0.767813  0.512507  1
  Li  Li16  1  0.550699  0.268650  0.304366  1
  Li  Li17  1  0.530110  0.024401  0.183700  1
  Li  Li18  1  0.434632  0.400854  0.724523  1
  Li  Li19  1  0.520378  0.752509  0.786216  1
  Li  Li20  1  0.400318  0.490264  0.303306  1
  Li  Li21  1  0.099022  0.546773  0.185904  1
  Li  Li22  1  0.852323  0.077238  0.586712  1
  Li  Li23  1  0.791333  0.770757  0.489744  1
  Li  Li24  1  0.497558  0.175952  0.893330  1
  Li  Li25  1  0.803763  0.263220  -0.003285  1
  Li  Li26  1  0.354357  -0.013719  0.786078  1
  Li  Li27  1  0.114737  0.034139  0.683133  1
  Ge  Ge28  1  0.003728  0.960764  0.989352  1
  Ge  Ge29  1  0.016733  0.471892  0.487930  1
  Ge  Ge30  1  0.511364  0.972280  0.491362  1
  Ge  Ge31  1  0.509178  0.468616  0.003879  1
  Se  Se32  1  0.088921  0.091217  0.149444  1
  Se  Se33  1  0.873702  0.813485  0.099833  1
  Se  Se34  1  0.885422  0.080927  0.850318  1
  Se  Se35  1  0.152056  0.862746  0.847475  1
  Se  Se36  1  0.087452  0.598429  0.658195  1
  Se  Se37  1  0.904649  0.312673  0.603167  1
  Se  Se38  1  0.881762  0.578708  0.356884  1
  Se  Se39  1  0.173025  0.386000  0.342837  1
  Se  Se40  1  0.615356  0.099905  0.643662  1
  Se  Se41  1  0.390855  0.821771  0.604108  1
  Se  Se42  1  0.381877  0.094009  0.367334  1
  Se  Se43  1  0.661042  0.890429  0.336115  1
  Se  Se44  1  0.594804  0.585895  0.170449  1
  Se  Se45  1  0.409879  0.300920  0.114075  1
  Se  Se46  1  0.373604  0.583407  0.879951  1
  Se  Se47  1  0.653444  0.374565  0.846890  1
  Se  Se48  1  0.263024  0.226120  0.759450  1
  Se  Se49  1  0.004897  0.923373  0.490450  1
  Se  Se50  1  0.499611  0.935809  0.965804  1
  Se  Se51  1  -0.002523  0.418612  -0.002736  1
  Cl  Cl52  1  0.743638  0.753785  0.719185  1
  Cl  Cl53  1  0.757599  0.214257  0.221931  1
  Cl  Cl54  1  0.213560  0.742847  0.238459  1
  Cl  Cl55  1  0.496227  0.403317  0.492386  1
