# generated using pymatgen
data_Li8SiTe6
_symmetry_space_group_name_H-M   'P 1'
_cell_length_a   11.60909499
_cell_length_b   11.70655483
_cell_length_c   11.32942010
_cell_angle_alpha   90.00000000
_cell_angle_beta   92.20846543
_cell_angle_gamma   90.00000000
_symmetry_Int_Tables_number   1
_chemical_formula_structural   Li8SiTe6
_chemical_formula_sum   'Li32 Si4 Te24'
_cell_volume   1538.55295900
_cell_formula_units_Z   4
loop_
 _symmetry_equiv_pos_site_id
 _symmetry_equiv_pos_as_xyz
  1  'x, y, z'
loop_
 _atom_site_type_symbol
 _atom_site_label
 _atom_site_symmetry_multiplicity
 _atom_site_fract_x
 _atom_site_fract_y
 _atom_site_fract_z
 _atom_site_occupancy
  Li  Li0  1  0.028031  0.202800  0.717815  1
  Li  Li1  1  0.507128  0.208338  0.199823  1
  Li  Li2  1  -0.007128  0.708338  0.800177  1
  Li  Li3  1  0.471969  0.702800  0.282185  1
  Li  Li4  1  0.971969  0.202800  0.282185  1
  Li  Li5  1  0.492872  0.208338  0.800177  1
  Li  Li6  1  0.007128  0.708338  0.199823  1
  Li  Li7  1  0.528031  0.702800  0.717815  1
  Li  Li8  1  0.684549  0.026899  0.187200  1
  Li  Li9  1  0.815451  0.526899  0.812800  1
  Li  Li10  1  0.315451  0.026899  0.812800  1
  Li  Li11  1  0.184549  0.526899  0.187200  1
  Li  Li12  1  0.188345  0.726289  0.012164  1
  Li  Li13  1  0.811655  0.726289  0.987836  1
  Li  Li14  1  0.311655  0.226289  0.987836  1
  Li  Li15  1  0.688345  0.226289  0.012164  1
  Li  Li16  1  0.666698  0.978462  0.832598  1
  Li  Li17  1  0.910035  0.954621  0.718436  1
  Li  Li18  1  0.589965  0.454621  0.281564  1
  Li  Li19  1  0.833302  0.478462  0.167402  1
  Li  Li20  1  0.333302  0.978462  0.167402  1
  Li  Li21  1  0.089965  0.954621  0.281564  1
  Li  Li22  1  0.410035  0.454621  0.718436  1
  Li  Li23  1  0.166698  0.478462  0.832598  1
  Li  Li24  1  0.345492  0.354533  0.459987  1
  Li  Li25  1  0.184206  0.177137  0.515490  1
  Li  Li26  1  0.654508  0.354533  0.540013  1
  Li  Li27  1  0.815794  0.177137  0.484510  1
  Li  Li28  1  0.315794  0.677137  0.484510  1
  Li  Li29  1  0.154508  0.854533  0.540013  1
  Li  Li30  1  0.684206  0.677137  0.515490  1
  Li  Li31  1  0.845492  0.854533  0.459987  1
  Si  Si32  1  0.000000  0.017216  -0.000000  1
  Si  Si33  1  0.000000  0.502938  0.500000  1
  Si  Si34  1  0.500000  0.002938  0.500000  1
  Si  Si35  1  0.500000  0.517216  -0.000000  1
  Te  Te36  1  0.138565  0.134040  0.125601  1
  Te  Te37  1  0.133509  0.624949  0.628068  1
  Te  Te38  1  0.633509  0.124949  0.628068  1
  Te  Te39  1  0.638565  0.634040  0.125601  1
  Te  Te40  1  0.882529  0.901620  0.141325  1
  Te  Te41  1  0.882244  0.378079  0.632598  1
  Te  Te42  1  0.382244  0.878079  0.632598  1
  Te  Te43  1  0.382529  0.401620  0.141325  1
  Te  Te44  1  0.861435  0.134040  0.874399  1
  Te  Te45  1  0.866491  0.624949  0.371932  1
  Te  Te46  1  0.366491  0.124949  0.371932  1
  Te  Te47  1  0.361435  0.634040  0.874399  1
  Te  Te48  1  0.117471  0.901620  0.858675  1
  Te  Te49  1  0.117756  0.378079  0.367402  1
  Te  Te50  1  0.617756  0.878079  0.367402  1
  Te  Te51  1  0.617471  0.401620  0.858675  1
  Te  Te52  1  0.261684  0.264474  0.740957  1
  Te  Te53  1  0.761684  0.764474  0.740957  1
  Te  Te54  1  0.738316  0.264474  0.259043  1
  Te  Te55  1  0.238316  0.764474  0.259043  1
  Te  Te56  1  0.000000  0.029140  0.500000  1
  Te  Te57  1  0.500000  0.529140  0.500000  1
  Te  Te58  1  0.000000  0.560445  -0.000000  1
  Te  Te59  1  0.500000  0.060445  -0.000000  1
