# generated using pymatgen
data_Li7GeSe5Br
_symmetry_space_group_name_H-M   'P 1'
_cell_length_a   10.73300094
_cell_length_b   11.09099568
_cell_length_c   10.66457067
_cell_angle_alpha   90.69654711
_cell_angle_beta   87.65254572
_cell_angle_gamma   90.16373561
_symmetry_Int_Tables_number   1
_chemical_formula_structural   Li7GeSe5Br
_chemical_formula_sum   'Li28 Ge4 Se20 Br4'
_cell_volume   1268.34431891
_cell_formula_units_Z   4
loop_
 _symmetry_equiv_pos_site_id
 _symmetry_equiv_pos_as_xyz
  1  'x, y, z'
loop_
 _atom_site_type_symbol
 _atom_site_label
 _atom_site_symmetry_multiplicity
 _atom_site_fract_x
 _atom_site_fract_y
 _atom_site_fract_z
 _atom_site_occupancy
  Li  Li0  1  0.037540  0.273638  0.786005  1
  Li  Li1  1  0.995986  0.795514  0.705092  1
  Li  Li2  1  0.006502  0.272152  0.205575  1
  Li  Li3  1  0.997098  0.803407  0.301510  1
  Li  Li4  1  0.707710  0.008198  0.175479  1
  Li  Li5  1  0.689025  0.987140  0.829734  1
  Li  Li6  1  0.175620  0.011579  0.349696  1
  Li  Li7  1  0.311715  0.791740  0.007637  1
  Li  Li8  1  0.695134  0.763889  0.999845  1
  Li  Li9  1  0.197394  0.251574  0.978169  1
  Li  Li10  1  0.901364  0.500337  0.807267  1
  Li  Li11  1  0.814857  0.481421  0.176297  1
  Li  Li12  1  0.304847  0.462437  0.697399  1
  Li  Li13  1  0.301510  0.270437  0.513287  1
  Li  Li14  1  0.659693  0.349383  0.601353  1
  Li  Li15  1  0.197900  0.760459  0.507811  1
  Li  Li16  1  0.503650  0.323547  0.298101  1
  Li  Li17  1  0.492566  0.784834  0.216271  1
  Li  Li18  1  0.491019  0.242252  0.796901  1
  Li  Li19  1  0.509949  0.774867  0.781185  1
  Li  Li20  1  0.230325  0.490411  0.005255  1
  Li  Li21  1  0.077056  0.544582  0.224891  1
  Li  Li22  1  0.873014  0.096101  0.588336  1
  Li  Li23  1  0.807050  0.788204  0.504414  1
  Li  Li24  1  0.391880  0.090542  0.119838  1
  Li  Li25  1  0.816331  0.278286  0.989806  1
  Li  Li26  1  0.354358  0.004259  0.824545  1
  Li  Li27  1  0.171382  0.012301  0.661683  1
  Ge  Ge28  1  0.013165  0.976075  0.992636  1
  Ge  Ge29  1  0.013946  0.474754  0.497794  1
  Ge  Ge30  1  0.513742  0.992495  0.494977  1
  Ge  Ge31  1  0.521117  0.482584  0.988675  1
  Se  Se32  1  0.137849  0.091764  0.132794  1
  Se  Se33  1  0.876605  0.851070  0.111453  1
  Se  Se34  1  0.893166  0.099958  0.860150  1
  Se  Se35  1  0.154572  0.867186  0.857735  1
  Se  Se36  1  0.108769  0.592506  0.657791  1
  Se  Se37  1  0.892804  0.333497  0.618363  1
  Se  Se38  1  0.887559  0.599937  0.371170  1
  Se  Se39  1  0.156187  0.375277  0.357784  1
  Se  Se40  1  0.629358  0.112592  0.639466  1
  Se  Se41  1  0.375099  0.870955  0.620108  1
  Se  Se42  1  0.390060  0.113402  0.362801  1
  Se  Se43  1  0.649055  0.876572  0.362911  1
  Se  Se44  1  0.616888  0.596434  0.146854  1
  Se  Se45  1  0.387975  0.334532  0.089980  1
  Se  Se46  1  0.380576  0.603280  0.873066  1
  Se  Se47  1  0.669448  0.390370  0.847933  1
  Se  Se48  1  0.263391  0.220447  0.747885  1
  Se  Se49  1  0.016445  0.924752  0.505616  1
  Se  Se50  1  0.512275  0.929147  0.994813  1
  Se  Se51  1  0.009462  0.424339  0.014721  1
  Br  Br52  1  0.753681  0.755652  0.751470  1
  Br  Br53  1  0.753001  0.244393  0.221510  1
  Br  Br54  1  0.237248  0.739690  0.242014  1
  Br  Br55  1  0.474081  0.438630  0.509926  1
