# generated using pymatgen
data_Li7GeTe5I
_symmetry_space_group_name_H-M   'P 1'
_cell_length_a   11.61562712
_cell_length_b   11.59130982
_cell_length_c   11.72254047
_cell_angle_alpha   90.06399874
_cell_angle_beta   88.91772023
_cell_angle_gamma   87.55751865
_symmetry_Int_Tables_number   1
_chemical_formula_structural   Li7GeTe5I
_chemical_formula_sum   'Li28 Ge4 Te20 I4'
_cell_volume   1576.60861704
_cell_formula_units_Z   4
loop_
 _symmetry_equiv_pos_site_id
 _symmetry_equiv_pos_as_xyz
  1  'x, y, z'
loop_
 _atom_site_type_symbol
 _atom_site_label
 _atom_site_symmetry_multiplicity
 _atom_site_fract_x
 _atom_site_fract_y
 _atom_site_fract_z
 _atom_site_occupancy
  Li  Li0  1  0.016975  0.299264  0.775409  1
  Li  Li1  1  0.976895  0.699800  0.802948  1
  Li  Li2  1  0.005466  0.188188  0.301684  1
  Li  Li3  1  0.008679  0.811879  0.277072  1
  Li  Li4  1  0.807907  0.006244  0.326040  1
  Li  Li5  1  0.701444  0.980575  0.789800  1
  Li  Li6  1  0.207705  0.997604  0.284653  1
  Li  Li7  1  0.332981  0.793608  0.000303  1
  Li  Li8  1  0.706872  0.783917  0.976402  1
  Li  Li9  1  0.196722  0.307253  0.973808  1
  Li  Li10  1  0.757026  0.503868  0.766769  1
  Li  Li11  1  0.712246  0.479487  0.303652  1
  Li  Li12  1  0.214863  0.489564  0.777586  1
  Li  Li13  1  0.317090  0.320364  0.515137  1
  Li  Li14  1  0.886566  0.117574  0.600732  1
  Li  Li15  1  0.194769  0.805526  0.487578  1
  Li  Li16  1  0.517973  0.281110  0.289177  1
  Li  Li17  1  0.531344  0.853271  0.184241  1
  Li  Li18  1  0.502954  0.296239  0.714198  1
  Li  Li19  1  0.519276  0.805297  0.803834  1
  Li  Li20  1  0.416267  0.563236  0.263533  1
  Li  Li21  1  0.063423  0.506317  0.187926  1
  Li  Li22  1  0.572125  0.700269  0.572246  1
  Li  Li23  1  0.871263  0.787265  0.528434  1
  Li  Li24  1  0.453832  0.204589  0.962180  1
  Li  Li25  1  0.723563  0.111006  0.032229  1
  Li  Li26  1  0.220042  0.075471  0.568249  1
  Li  Li27  1  0.315797  0.010993  0.825556  1
  Ge  Ge28  1  0.011175  0.994395  0.985006  1
  Ge  Ge29  1  0.005386  0.490436  0.488466  1
  Ge  Ge30  1  0.517493  0.991985  0.500130  1
  Ge  Ge31  1  0.507857  0.490924  0.990007  1
  Te  Te32  1  0.135917  0.127556  0.105985  1
  Te  Te33  1  0.858666  0.893966  0.115331  1
  Te  Te34  1  0.883799  0.118803  0.845801  1
  Te  Te35  1  0.144241  0.848643  0.872984  1
  Te  Te36  1  0.112504  0.632540  0.616590  1
  Te  Te37  1  0.865354  0.365427  0.604583  1
  Te  Te38  1  0.894141  0.616720  0.335611  1
  Te  Te39  1  0.146290  0.365202  0.360435  1
  Te  Te40  1  0.643207  0.128380  0.613428  1
  Te  Te41  1  0.374161  0.873242  0.626163  1
  Te  Te42  1  0.376800  0.122036  0.378995  1
  Te  Te43  1  0.650535  0.841043  0.388763  1
  Te  Te44  1  0.613494  0.623429  0.133009  1
  Te  Te45  1  0.368126  0.374834  0.121890  1
  Te  Te46  1  0.396096  0.614958  0.841594  1
  Te  Te47  1  0.646506  0.334832  0.894528  1
  Te  Te48  1  0.268452  0.246731  0.746512  1
  Te  Te49  1  0.745527  0.741753  0.739357  1
  Te  Te50  1  0.019882  0.983145  0.449014  1
  Te  Te51  1  0.513785  0.970079  0.976509  1
  I  I52  1  0.755223  0.238243  0.245533  1
  I  I53  1  0.258051  0.758392  0.243094  1
  I  I54  1  0.024857  0.484196  0.948792  1
  I  I55  1  0.510409  0.474114  0.466293  1
