# generated using pymatgen
data_Li7SiS5Br
_symmetry_space_group_name_H-M   'P 1'
_cell_length_a   10.11886631
_cell_length_b   10.22245233
_cell_length_c   10.22981429
_cell_angle_alpha   92.32072718
_cell_angle_beta   89.23222874
_cell_angle_gamma   89.95486690
_symmetry_Int_Tables_number   1
_chemical_formula_structural   Li7SiS5Br
_chemical_formula_sum   'Li28 Si4 S20 Br4'
_cell_volume   1057.20443109
_cell_formula_units_Z   4
loop_
 _symmetry_equiv_pos_site_id
 _symmetry_equiv_pos_as_xyz
  1  'x, y, z'
loop_
 _atom_site_type_symbol
 _atom_site_label
 _atom_site_symmetry_multiplicity
 _atom_site_fract_x
 _atom_site_fract_y
 _atom_site_fract_z
 _atom_site_occupancy
  Li  Li0  1  0.004423  0.306787  0.789768  1
  Li  Li1  1  -0.006064  0.699227  0.835976  1
  Li  Li2  1  0.003720  0.289217  0.181159  1
  Li  Li3  1  0.917237  0.850016  0.323359  1
  Li  Li4  1  0.831666  0.077423  0.478723  1
  Li  Li5  1  0.716991  0.986459  0.788529  1
  Li  Li6  1  0.189230  0.988951  0.301902  1
  Li  Li7  1  0.315234  0.802572  0.995703  1
  Li  Li8  1  0.730402  0.773953  0.970100  1
  Li  Li9  1  0.230973  0.294424  0.969249  1
  Li  Li10  1  0.753087  0.519564  0.715662  1
  Li  Li11  1  0.707538  0.497530  0.275343  1
  Li  Li12  1  0.251778  0.475813  0.735611  1
  Li  Li13  1  0.199833  0.204179  0.501741  1
  Li  Li14  1  0.686922  0.308546  0.481563  1
  Li  Li15  1  0.212064  0.807204  0.516595  1
  Li  Li16  1  0.395919  0.110440  0.132292  1
  Li  Li17  1  0.519966  0.810031  0.186616  1
  Li  Li18  1  0.475186  0.284226  0.703689  1
  Li  Li19  1  0.529197  0.775036  0.793415  1
  Li  Li20  1  0.357974  0.477081  0.298251  1
  Li  Li21  1  0.067266  0.586791  0.211826  1
  Li  Li22  1  0.635296  0.732684  0.530225  1
  Li  Li23  1  0.935350  0.778410  0.578449  1
  Li  Li24  1  0.616532  0.213530  0.001480  1
  Li  Li25  1  0.722502  0.000380  0.149940  1
  Li  Li26  1  0.349836  0.022895  0.793537  1
  Li  Li27  1  0.072675  0.050225  0.706423  1
  Si  Si28  1  0.026937  0.995611  0.983671  1
  Si  Si29  1  0.009023  0.496065  0.487729  1
  Si  Si30  1  0.519135  0.002178  0.483080  1
  Si  Si31  1  0.516260  0.493544  0.980104  1
  S  S32  1  0.148628  0.115062  0.109667  1
  S  S33  1  0.914236  0.858810  0.091780  1
  S  S34  1  0.898461  0.115319  0.876985  1
  S  S35  1  0.152390  0.883872  0.851026  1
  S  S36  1  0.113459  0.620127  0.623433  1
  S  S37  1  0.891112  0.361089  0.590504  1
  S  S38  1  0.887102  0.621099  0.375533  1
  S  S39  1  0.138954  0.393040  0.353233  1
  S  S40  1  0.633140  0.126770  0.611067  1
  S  S41  1  0.422982  0.864760  0.604107  1
  S  S42  1  0.387217  0.110230  0.370807  1
  S  S43  1  0.662511  0.897278  0.359579  1
  S  S44  1  0.631651  0.618198  0.105004  1
  S  S45  1  0.418851  0.353688  0.100742  1
  S  S46  1  0.384059  0.610223  0.874493  1
  S  S47  1  0.635828  0.377660  0.848652  1
  S  S48  1  0.242973  0.238325  0.735738  1
  S  S49  1  0.763816  0.751450  0.738626  1
  S  S50  1  0.039433  0.972759  0.483953  1
  S  S51  1  0.535146  0.967954  0.988662  1
  Br  Br52  1  0.764012  0.242204  0.241142  1
  Br  Br53  1  0.274529  0.743728  0.243401  1
  Br  Br54  1  0.031631  0.473748  0.988005  1
  Br  Br55  1  0.533794  0.497396  0.477933  1
