# generated using pymatgen
data_Li7SiTe5I
_symmetry_space_group_name_H-M   'P 1'
_cell_length_a   11.25430473
_cell_length_b   11.97431231
_cell_length_c   11.97431231
_cell_angle_alpha   91.16338027
_cell_angle_beta   88.87953613
_cell_angle_gamma   88.87953613
_symmetry_Int_Tables_number   1
_chemical_formula_structural   Li7SiTe5I
_chemical_formula_sum   'Li28 Si4 Te20 I4'
_cell_volume   1612.72651540
_cell_formula_units_Z   4
loop_
 _symmetry_equiv_pos_site_id
 _symmetry_equiv_pos_as_xyz
  1  'x, y, z'
loop_
 _atom_site_type_symbol
 _atom_site_label
 _atom_site_symmetry_multiplicity
 _atom_site_fract_x
 _atom_site_fract_y
 _atom_site_fract_z
 _atom_site_occupancy
  Li  Li0  1  0.004033  0.276029  0.777630  1
  Li  Li1  1  0.989640  0.745389  0.743386  1
  Li  Li2  1  0.989640  0.245389  0.243386  1
  Li  Li3  1  0.004033  0.776029  0.277630  1
  Li  Li4  1  0.803485  0.022561  0.315025  1
  Li  Li5  1  0.714157  0.973001  0.780079  1
  Li  Li6  1  0.214546  0.973443  0.280437  1
  Li  Li7  1  0.303485  0.815025  0.022561  1
  Li  Li8  1  0.714546  0.780437  0.973443  1
  Li  Li9  1  0.214157  0.280079  0.973001  1
  Li  Li10  1  0.803485  0.522561  0.815025  1
  Li  Li11  1  0.714157  0.473001  0.280079  1
  Li  Li12  1  0.214546  0.473443  0.780437  1
  Li  Li13  1  0.303485  0.315025  0.522561  1
  Li  Li14  1  0.714546  0.280437  0.473443  1
  Li  Li15  1  0.214157  0.780079  0.473001  1
  Li  Li16  1  0.504033  0.277630  0.276029  1
  Li  Li17  1  0.489640  0.743386  0.245389  1
  Li  Li18  1  0.489640  0.243386  0.745389  1
  Li  Li19  1  0.504033  0.777630  0.776029  1
  Li  Li20  1  0.210136  0.572603  0.070761  1
  Li  Li21  1  0.302021  0.522769  0.313913  1
  Li  Li22  1  0.802021  0.813913  0.522769  1
  Li  Li23  1  0.710136  0.570761  0.572603  1
  Li  Li24  1  0.802021  0.313913  0.022769  1
  Li  Li25  1  0.710136  0.070761  0.072603  1
  Li  Li26  1  0.210136  0.072603  0.570761  1
  Li  Li27  1  0.302021  0.022769  0.813913  1
  Si  Si28  1  0.002788  0.999360  0.000064  1
  Si  Si29  1  0.002788  0.499360  0.500064  1
  Si  Si30  1  0.502788  0.000064  0.499360  1
  Si  Si31  1  0.502788  0.500064  0.999360  1
  Te  Te32  1  0.143177  0.114241  0.114053  1
  Te  Te33  1  0.864551  0.888321  0.123276  1
  Te  Te34  1  0.863123  0.122027  0.889733  1
  Te  Te35  1  0.128522  0.873519  0.873771  1
  Te  Te36  1  0.143177  0.614241  0.614053  1
  Te  Te37  1  0.864551  0.388321  0.623276  1
  Te  Te38  1  0.863123  0.622027  0.389733  1
  Te  Te39  1  0.128522  0.373519  0.373771  1
  Te  Te40  1  0.643177  0.114053  0.614241  1
  Te  Te41  1  0.363123  0.889733  0.622027  1
  Te  Te42  1  0.364551  0.123276  0.388321  1
  Te  Te43  1  0.628522  0.873771  0.373519  1
  Te  Te44  1  0.643177  0.614053  0.114241  1
  Te  Te45  1  0.363123  0.389733  0.122027  1
  Te  Te46  1  0.364551  0.623276  0.888321  1
  Te  Te47  1  0.628522  0.373771  0.873519  1
  Te  Te48  1  0.247349  0.240885  0.740758  1
  Te  Te49  1  0.747349  0.740758  0.740885  1
  Te  Te50  1  0.747349  0.240758  0.240885  1
  Te  Te51  1  0.247349  0.740885  0.240758  1
  I  I52  1  0.012474  0.957457  0.458401  1
  I  I53  1  0.512474  0.958401  0.957457  1
  I  I54  1  0.012474  0.457457  0.958401  1
  I  I55  1  0.512474  0.458401  0.457457  1
