# generated using pymatgen
data_Li7GeS5I
_symmetry_space_group_name_H-M   'P 1'
_cell_length_a   10.52523177
_cell_length_b   10.30177163
_cell_length_c   10.39292611
_cell_angle_alpha   90.02296488
_cell_angle_beta   89.85597425
_cell_angle_gamma   90.11556985
_symmetry_Int_Tables_number   1
_chemical_formula_structural   Li7GeS5I
_chemical_formula_sum   'Li28 Ge4 S20 I4'
_cell_volume   1126.88380091
_cell_formula_units_Z   4
loop_
 _symmetry_equiv_pos_site_id
 _symmetry_equiv_pos_as_xyz
  1  'x, y, z'
loop_
 _atom_site_type_symbol
 _atom_site_label
 _atom_site_symmetry_multiplicity
 _atom_site_fract_x
 _atom_site_fract_y
 _atom_site_fract_z
 _atom_site_occupancy
  Li  Li0  1  0.044135  0.299701  0.818121  1
  Li  Li1  1  0.009142  0.776752  0.693878  1
  Li  Li2  1  0.011705  0.274954  0.175638  1
  Li  Li3  1  0.006834  0.789999  0.303936  1
  Li  Li4  1  0.824667  0.982940  0.308659  1
  Li  Li5  1  0.683044  0.005849  0.820059  1
  Li  Li6  1  0.140052  0.067864  0.357173  1
  Li  Li7  1  0.322406  0.819905  0.002051  1
  Li  Li8  1  0.627120  0.852420  0.106456  1
  Li  Li9  1  0.288990  0.166359  0.977294  1
  Li  Li10  1  0.829354  0.481841  0.813619  1
  Li  Li11  1  0.846427  0.603247  0.105662  1
  Li  Li12  1  0.294924  0.467796  0.710167  1
  Li  Li13  1  0.282927  0.254026  0.518582  1
  Li  Li14  1  0.702965  0.311402  0.510498  1
  Li  Li15  1  0.202574  0.784561  0.503800  1
  Li  Li16  1  0.468848  0.296491  0.303174  1
  Li  Li17  1  0.511158  0.663124  0.325428  1
  Li  Li18  1  0.491862  0.250148  0.730765  1
  Li  Li19  1  0.504405  0.779851  0.798942  1
  Li  Li20  1  0.214430  0.483495  0.995998  1
  Li  Li21  1  0.071540  0.516818  0.227669  1
  Li  Li22  1  0.863399  0.097627  0.603678  1
  Li  Li23  1  0.802515  0.768521  0.490616  1
  Li  Li24  1  0.548276  0.184181  0.036697  1
  Li  Li25  1  0.822660  0.281515  0.991463  1
  Li  Li26  1  0.346092  0.001317  0.778333  1
  Li  Li27  1  0.100689  0.045391  0.703383  1
  Ge  Ge28  1  0.008172  0.970237  0.992784  1
  Ge  Ge29  1  0.009033  0.467909  0.497582  1
  Ge  Ge30  1  0.505138  0.980260  0.486825  1
  Ge  Ge31  1  0.509467  0.484396  0.998432  1
  S  S32  1  0.128837  0.088381  0.123052  1
  S  S33  1  0.877464  0.849710  0.116819  1
  S  S34  1  0.898195  0.101234  0.855587  1
  S  S35  1  0.142110  0.867495  0.858378  1
  S  S36  1  0.128814  0.594180  0.622049  1
  S  S37  1  0.891911  0.344462  0.632112  1
  S  S38  1  0.891791  0.590367  0.362155  1
  S  S39  1  0.124394  0.336865  0.369713  1
  S  S40  1  0.632068  0.107588  0.611215  1
  S  S41  1  0.391104  0.848691  0.611776  1
  S  S42  1  0.373092  0.100570  0.370792  1
  S  S43  1  0.633294  0.859609  0.359661  1
  S  S44  1  0.619608  0.609930  0.129683  1
  S  S45  1  0.379393  0.344073  0.101716  1
  S  S46  1  0.374913  0.604176  0.880528  1
  S  S47  1  0.635885  0.353044  0.879950  1
  S  S48  1  0.258687  0.225468  0.748578  1
  S  S49  1  -0.001940  0.937343  0.495379  1
  S  S50  1  0.495638  0.974051  0.952814  1
  S  S51  1  0.989258  0.443245  0.009254  1
  I  I52  1  0.758330  0.731911  0.750709  1
  I  I53  1  0.740199  0.225908  0.243168  1
  I  I54  1  0.252578  0.714097  0.241847  1
  I  I55  1  0.489428  0.462484  0.511482  1
