# generated using pymatgen
data_Li6Te5PBr
_symmetry_space_group_name_H-M   'P 1'
_cell_length_a   11.46837807
_cell_length_b   11.46837807
_cell_length_c   11.46837807
_cell_angle_alpha   92.78205426
_cell_angle_beta   87.21794574
_cell_angle_gamma   87.21794574
_symmetry_Int_Tables_number   1
_chemical_formula_structural   Li6Te5PBr
_chemical_formula_sum   'Li24 Te20 P4 Br4'
_cell_volume   1502.85073950
_cell_formula_units_Z   4
loop_
 _symmetry_equiv_pos_site_id
 _symmetry_equiv_pos_as_xyz
  1  'x, y, z'
loop_
 _atom_site_type_symbol
 _atom_site_label
 _atom_site_symmetry_multiplicity
 _atom_site_fract_x
 _atom_site_fract_y
 _atom_site_fract_z
 _atom_site_occupancy
  Br  Br0  1  0.033342  -0.033342  0.466658  1
  Br  Br1  1  0.268581  0.248771  0.748771  1
  Br  Br2  1  0.751229  0.731419  0.748771  1
  Br  Br3  1  0.751229  0.248771  0.231419  1
  Li  Li4  1  0.008520  0.304994  0.804994  1
  Li  Li5  1  0.526232  0.299168  0.290782  1
  Li  Li6  1  -0.002230  0.661714  0.838480  1
  Li  Li7  1  0.472008  0.751722  0.251722  1
  Li  Li8  1  -0.002230  0.338480  0.161714  1
  Li  Li9  1  0.484179  0.243672  0.743672  1
  Li  Li10  1  0.003208  0.812546  0.312546  1
  Li  Li11  1  0.526232  0.790782  0.799168  1
  Li  Li12  1  0.661520  0.002230  0.161714  1
  Li  Li13  1  0.756328  0.515821  0.743672  1
  Li  Li14  1  0.695006  0.991480  0.804994  1
  Li  Li15  1  0.700832  0.473768  0.290782  1
  Li  Li16  1  0.187454  -0.003208  0.312546  1
  Li  Li17  1  0.209218  0.473768  0.799168  1
  Li  Li18  1  0.338286  0.002230  0.838480  1
  Li  Li19  1  0.248278  0.527992  0.251722  1
  Li  Li20  1  0.248278  0.751722  0.027992  1
  Li  Li21  1  0.338286  0.338480  0.502230  1
  Li  Li22  1  0.700832  0.790782  0.973768  1
  Li  Li23  1  0.695006  0.304994  0.491480  1
  Li  Li24  1  0.209218  0.299168  0.973768  1
  Li  Li25  1  0.187454  0.812546  0.496792  1
  Li  Li26  1  0.756328  0.243672  0.015821  1
  Li  Li27  1  0.661520  0.661714  0.502230  1
  P  P28  1  0.007356  -0.007356  -0.017381  1
  P  P29  1  0.007356  0.482619  0.492644  1
  P  P30  1  0.517381  -0.007356  0.492644  1
  P  P31  1  0.505477  0.494523  -0.005477  1
  Te  Te32  1  0.132956  0.117864  0.107196  1
  Te  Te33  1  0.132956  0.607196  0.617864  1
  Te  Te34  1  0.651333  0.112367  0.612367  1
  Te  Te35  1  0.637169  0.615814  0.115814  1
  Te  Te36  1  0.882136  0.867044  0.107196  1
  Te  Te37  1  0.887633  0.348667  0.612367  1
  Te  Te38  1  0.392804  0.867044  0.617864  1
  Te  Te39  1  0.384186  0.362831  0.115814  1
  Te  Te40  1  0.887633  0.112367  0.848667  1
  Te  Te41  1  0.882136  0.607196  0.367044  1
  Te  Te42  1  0.392804  0.117864  0.367044  1
  Te  Te43  1  0.384186  0.615814  0.862831  1
  Te  Te44  1  0.140941  0.859059  0.847123  1
  Te  Te45  1  0.140941  0.347123  0.359059  1
  Te  Te46  1  0.652877  0.859059  0.359059  1
  Te  Te47  1  0.637568  0.362432  0.862432  1
  Te  Te48  1  0.527285  0.472715  0.467285  1
  Te  Te49  1  0.032715  0.472715  -0.027285  1
  Te  Te50  1  0.527285  -0.032715  -0.027285  1
  Te  Te51  1  0.240747  0.759253  0.259253  1
