# generated using pymatgen
data_Li6PS5I
_symmetry_space_group_name_H-M   'P 1'
_cell_length_a   10.32434303
_cell_length_b   10.32434303
_cell_length_c   10.32434303
_cell_angle_alpha   90.00000000
_cell_angle_beta   90.00000000
_cell_angle_gamma   90.00000000
_symmetry_Int_Tables_number   1
_chemical_formula_structural   Li6PS5I
_chemical_formula_sum   'Li24 P4 S20 I4'
_cell_volume   1100.49298221
_cell_formula_units_Z   4
loop_
 _symmetry_equiv_pos_site_id
 _symmetry_equiv_pos_as_xyz
  1  'x, y, z'
loop_
 _atom_site_type_symbol
 _atom_site_label
 _atom_site_symmetry_multiplicity
 _atom_site_fract_x
 _atom_site_fract_y
 _atom_site_fract_z
 _atom_site_occupancy
  Li  Li1  1  0.023586  0.250000  0.750000  1
  Li  Li2  1  0.750000  0.750000  0.976414  1
  Li  Li3  1  0.976414  0.250000  0.250000  1
  Li  Li4  1  0.250000  0.750000  0.023586  1
  Li  Li5  1  0.023586  0.750000  0.250000  1
  Li  Li6  1  0.750000  0.250000  0.023586  1
  Li  Li7  1  0.976414  0.750000  0.750000  1
  Li  Li8  1  0.250000  0.250000  0.976414  1
  Li  Li9  1  0.250000  0.023586  0.750000  1
  Li  Li10  1  0.250000  0.976414  0.250000  1
  Li  Li11  1  0.750000  0.976414  0.750000  1
  Li  Li12  1  0.750000  0.023586  0.250000  1
  Li  Li13  1  0.523586  0.750000  0.750000  1
  Li  Li14  1  0.476414  0.750000  0.250000  1
  Li  Li15  1  0.523586  0.250000  0.250000  1
  Li  Li16  1  0.476414  0.250000  0.750000  1
  Li  Li17  1  0.750000  0.523586  0.750000  1
  Li  Li18  1  0.750000  0.476414  0.250000  1
  Li  Li19  1  0.250000  0.476414  0.750000  1
  Li  Li20  1  0.250000  0.523586  0.250000  1
  Li  Li21  1  0.250000  0.750000  0.476414  1
  Li  Li22  1  0.750000  0.750000  0.523586  1
  Li  Li23  1  0.250000  0.250000  0.523586  1
  Li  Li24  1  0.750000  0.250000  0.476414  1
  P  P25  1  0.000000  0.000000  0.500000  1
  P  P26  1  0.500000  0.000000  0.000000  1
  P  P27  1  0.000000  0.500000  0.000000  1
  P  P28  1  0.500000  0.500000  0.500000  1
  S  S29  1  0.114917  0.114917  0.385083  1
  S  S30  1  0.385083  0.885083  0.885083  1
  S  S31  1  0.885083  0.114917  0.614917  1
  S  S32  1  0.614917  0.885083  0.114917  1
  S  S33  1  0.114917  0.885083  0.614917  1
  S  S34  1  0.385083  0.114917  0.114917  1
  S  S35  1  0.885083  0.885083  0.385083  1
  S  S36  1  0.614917  0.114917  0.885083  1
  S  S37  1  0.885083  0.614917  0.114917  1
  S  S38  1  0.885083  0.385083  0.885083  1
  S  S39  1  0.114917  0.385083  0.114917  1
  S  S40  1  0.114917  0.614917  0.885083  1
  S  S41  1  0.614917  0.614917  0.385083  1
  S  S42  1  0.385083  0.614917  0.614917  1
  S  S43  1  0.614917  0.385083  0.614917  1
  S  S44  1  0.385083  0.385083  0.385083  1
  S  S45  1  0.250000  0.250000  0.750000  1
  S  S46  1  0.750000  0.750000  0.750000  1
  S  S47  1  0.750000  0.250000  0.250000  1
  S  S48  1  0.250000  0.750000  0.250000  1
  I  I49  1  0.000000  0.000000  0.000000  1
  I  I50  1  0.500000  0.500000  0.000000  1
  I  I51  1  0.500000  0.000000  0.500000  1
  I  I52  1  0.000000  0.500000  0.500000  1
