# generated using pymatgen
data_Li7SnS5Br
_symmetry_space_group_name_H-M   'P 1'
_cell_length_a   10.60582327
_cell_length_b   10.65081928
_cell_length_c   10.61805711
_cell_angle_alpha   90.46296347
_cell_angle_beta   89.70328609
_cell_angle_gamma   88.67708476
_symmetry_Int_Tables_number   1
_chemical_formula_structural   Li7SnS5Br
_chemical_formula_sum   'Li28 Sn4 S20 Br4'
_cell_volume   1199.04712532
_cell_formula_units_Z   4
loop_
 _symmetry_equiv_pos_site_id
 _symmetry_equiv_pos_as_xyz
  1  'x, y, z'
loop_
 _atom_site_type_symbol
 _atom_site_label
 _atom_site_symmetry_multiplicity
 _atom_site_fract_x
 _atom_site_fract_y
 _atom_site_fract_z
 _atom_site_occupancy
  Li  Li0  1  0.030058  0.297396  0.778439  1
  Li  Li1  1  0.982782  0.730514  0.762365  1
  Li  Li2  1  0.988543  0.239059  0.243030  1
  Li  Li3  1  0.010726  0.812879  0.297852  1
  Li  Li4  1  0.762205  0.008713  0.239506  1
  Li  Li5  1  0.721883  0.993517  0.775764  1
  Li  Li6  1  0.185370  0.031089  0.329385  1
  Li  Li7  1  0.249072  0.736436  0.982397  1
  Li  Li8  1  0.754937  0.757718  0.968641  1
  Li  Li9  1  0.234443  0.273935  0.986508  1
  Li  Li10  1  0.752063  0.512066  0.743323  1
  Li  Li11  1  0.733527  0.484405  0.272438  1
  Li  Li12  1  0.264959  0.469086  0.749648  1
  Li  Li13  1  0.249495  0.243439  0.524054  1
  Li  Li14  1  0.784715  0.226526  0.468886  1
  Li  Li15  1  0.188461  0.816493  0.556676  1
  Li  Li16  1  0.533774  0.282707  0.305163  1
  Li  Li17  1  0.516955  0.715114  0.272310  1
  Li  Li18  1  0.493835  0.247352  0.746513  1
  Li  Li19  1  0.527010  0.787251  0.803569  1
  Li  Li20  1  0.322415  0.478052  0.297694  1
  Li  Li21  1  0.053882  0.535067  0.208672  1
  Li  Li22  1  0.592733  0.720858  0.554765  1
  Li  Li23  1  0.844144  0.823764  0.506471  1
  Li  Li24  1  0.580943  0.207491  0.047364  1
  Li  Li25  1  0.830146  0.298789  0.003410  1
  Li  Li26  1  0.320567  0.013329  0.790298  1
  Li  Li27  1  0.033817  0.027591  0.684014  1
  Sn  Sn28  1  0.014924  0.000292  0.992740  1
  Sn  Sn29  1  0.008319  0.499909  0.500569  1
  Sn  Sn30  1  0.512822  0.003652  0.496857  1
  Sn  Sn31  1  0.517215  0.496461  0.997795  1
  S  S32  1  0.144971  0.121503  0.126465  1
  S  S33  1  0.887189  0.863226  0.112802  1
  S  S34  1  0.894044  0.127626  0.848459  1
  S  S35  1  0.140265  0.876844  0.842347  1
  S  S36  1  0.136300  0.616352  0.640729  1
  S  S37  1  0.877561  0.365757  0.619591  1
  S  S38  1  0.892974  0.627930  0.352838  1
  S  S39  1  0.136159  0.368523  0.359216  1
  S  S40  1  0.644880  0.136672  0.616906  1
  S  S41  1  0.401686  0.856323  0.625843  1
  S  S42  1  0.378768  0.133638  0.371523  1
  S  S43  1  0.650187  0.862749  0.376132  1
  S  S44  1  0.651582  0.628640  0.115822  1
  S  S45  1  0.402826  0.348862  0.124172  1
  S  S46  1  0.389911  0.617525  0.856460  1
  S  S47  1  0.648208  0.353982  0.873938  1
  S  S48  1  0.260485  0.241824  0.751724  1
  S  S49  1  0.753485  0.748551  0.734636  1
  S  S50  1  0.755930  0.243444  0.232136  1
  S  S51  1  0.030558  0.955023  0.472404  1
  Br  Br52  1  0.248876  0.706504  0.222779  1
  Br  Br53  1  0.529462  0.993030  0.942566  1
  Br  Br54  1  0.023703  0.448935  0.987277  1
  Br  Br55  1  0.523250  0.511362  0.431902  1
