# generated using pymatgen
data_Li6Te5PCl
_symmetry_space_group_name_H-M   'P 1'
_cell_length_a   9.60143057
_cell_length_b   13.29128497
_cell_length_c   11.96335464
_cell_angle_alpha   90.00000000
_cell_angle_beta   90.00000000
_cell_angle_gamma   90.00000000
_symmetry_Int_Tables_number   1
_chemical_formula_structural   Li6Te5PCl
_chemical_formula_sum   'Li24 Te20 P4 Cl4'
_cell_volume   1526.70768794
_cell_formula_units_Z   4
loop_
 _symmetry_equiv_pos_site_id
 _symmetry_equiv_pos_as_xyz
  1  'x, y, z'
loop_
 _atom_site_type_symbol
 _atom_site_label
 _atom_site_symmetry_multiplicity
 _atom_site_fract_x
 _atom_site_fract_y
 _atom_site_fract_z
 _atom_site_occupancy
  Cl  Cl0  1  0.000000  0.165176  0.500000  1
  Cl  Cl1  1  0.500000  0.334824  0.500000  1
  Cl  Cl2  1  0.250000  0.250000  0.733643  1
  Cl  Cl3  1  0.750000  0.250000  0.266357  1
  Li  Li4  1  0.009966  0.222636  0.685727  1
  Li  Li5  1  0.509966  0.277364  0.314273  1
  Li  Li6  1  0.027621  0.731852  0.746453  1
  Li  Li7  1  0.527621  0.768148  0.253547  1
  Li  Li8  1  0.990034  0.222636  0.314273  1
  Li  Li9  1  0.490034  0.277364  0.685727  1
  Li  Li10  1  -0.027621  0.731852  0.253547  1
  Li  Li11  1  0.472379  0.768148  0.746453  1
  Li  Li12  1  0.628320  0.010496  0.174033  1
  Li  Li13  1  0.725565  0.545767  0.753850  1
  Li  Li14  1  0.774435  0.954233  0.753850  1
  Li  Li15  1  0.871680  0.489504  0.174033  1
  Li  Li16  1  0.225565  0.954233  0.246150  1
  Li  Li17  1  0.128320  0.489504  0.825967  1
  Li  Li18  1  0.371680  0.010496  0.825967  1
  Li  Li19  1  0.274435  0.545767  0.246150  1
  Li  Li20  1  0.250000  0.750000  0.056326  1
  Li  Li21  1  0.250000  0.250000  0.504230  1
  Li  Li22  1  0.750000  0.750000  0.943674  1
  Li  Li23  1  0.750000  0.250000  0.495770  1
  Li  Li24  1  0.250000  0.250000  0.936101  1
  Li  Li25  1  0.250000  0.750000  0.500798  1
  Li  Li26  1  0.750000  0.250000  0.063899  1
  Li  Li27  1  0.750000  0.750000  0.499202  1
  P  P28  1  0.000000  -0.003562  0.000000  1
  P  P29  1  0.000000  0.497375  0.500000  1
  P  P30  1  0.500000  0.002625  0.500000  1
  P  P31  1  0.500000  0.503562  0.000000  1
  Te  Te32  1  0.172779  0.108737  0.095683  1
  Te  Te33  1  0.170939  0.588427  0.625243  1
  Te  Te34  1  0.636503  0.099876  0.640807  1
  Te  Te35  1  0.663296  0.640976  0.115095  1
  Te  Te36  1  0.836704  0.859024  0.115095  1
  Te  Te37  1  0.863497  0.400124  0.640807  1
  Te  Te38  1  0.329061  0.911573  0.625243  1
  Te  Te39  1  0.327221  0.391263  0.095683  1
  Te  Te40  1  0.827221  0.108737  0.904317  1
  Te  Te41  1  0.829061  0.588427  0.374757  1
  Te  Te42  1  0.363497  0.099876  0.359193  1
  Te  Te43  1  0.336704  0.640976  0.884905  1
  Te  Te44  1  0.163296  0.859024  0.884905  1
  Te  Te45  1  0.136503  0.400124  0.359193  1
  Te  Te46  1  0.670939  0.911573  0.374757  1
  Te  Te47  1  0.672779  0.391263  0.904317  1
  Te  Te48  1  0.000000  0.393880  0.000000  1
  Te  Te49  1  0.500000  0.106120  0.000000  1
  Te  Te50  1  0.750000  0.750000  0.722536  1
  Te  Te51  1  0.250000  0.750000  0.277464  1
