# generated using pymatgen
data_Li7SnS5Br
_symmetry_space_group_name_H-M   'P 1'
_cell_length_a   10.69575134
_cell_length_b   10.45425932
_cell_length_c   10.45425932
_cell_angle_alpha   90.97336472
_cell_angle_beta   89.09077839
_cell_angle_gamma   89.09077839
_symmetry_Int_Tables_number   1
_chemical_formula_structural   Li7SnS5Br
_chemical_formula_sum   'Li28 Sn4 S20 Br4'
_cell_volume   1168.48700694
_cell_formula_units_Z   4
loop_
 _symmetry_equiv_pos_site_id
 _symmetry_equiv_pos_as_xyz
  1  'x, y, z'
loop_
 _atom_site_type_symbol
 _atom_site_label
 _atom_site_symmetry_multiplicity
 _atom_site_fract_x
 _atom_site_fract_y
 _atom_site_fract_z
 _atom_site_occupancy
  Li  Li0  1  0.023487  0.344865  0.806616  1
  Li  Li1  1  -0.001445  0.803914  0.689542  1
  Li  Li2  1  -0.001445  0.303914  0.189542  1
  Li  Li3  1  0.023487  0.844865  0.306616  1
  Li  Li4  1  0.651709  0.888298  0.127701  1
  Li  Li5  1  0.708592  0.023268  0.813790  1
  Li  Li6  1  0.363757  0.063935  0.140254  1
  Li  Li7  1  0.151709  0.627701  0.888298  1
  Li  Li8  1  0.863757  0.640254  0.063935  1
  Li  Li9  1  0.208592  0.313790  0.023268  1
  Li  Li10  1  0.651709  0.388298  0.627701  1
  Li  Li11  1  0.708592  0.523268  0.313790  1
  Li  Li12  1  0.363757  0.563935  0.640254  1
  Li  Li13  1  0.151709  0.127701  0.388298  1
  Li  Li14  1  0.863757  0.140254  0.563935  1
  Li  Li15  1  0.208592  0.813790  0.523268  1
  Li  Li16  1  0.523487  0.306616  0.344865  1
  Li  Li17  1  0.498555  0.689542  0.303914  1
  Li  Li18  1  0.498555  0.189542  0.803914  1
  Li  Li19  1  0.523487  0.806616  0.844865  1
  Li  Li20  1  0.329328  0.478907  0.338455  1
  Li  Li21  1  0.083312  0.554209  0.216615  1
  Li  Li22  1  0.583312  0.716615  0.554209  1
  Li  Li23  1  0.829328  0.838455  0.478907  1
  Li  Li24  1  0.583312  0.216615  0.054209  1
  Li  Li25  1  0.829328  0.338455  -0.021093  1
  Li  Li26  1  0.329328  -0.021093  0.838455  1
  Li  Li27  1  0.083312  0.054209  0.716615  1
  Sn  Sn28  1  0.008002  -0.001972  0.003901  1
  Sn  Sn29  1  0.008002  0.498028  0.503901  1
  Sn  Sn30  1  0.508002  0.003901  0.498028  1
  Sn  Sn31  1  0.508002  0.503901  -0.001972  1
  S  S32  1  0.139156  0.122234  0.142530  1
  S  S33  1  0.881002  0.863900  0.130518  1
  S  S34  1  0.901677  0.140057  0.858680  1
  S  S35  1  0.135120  0.870534  0.857447  1
  S  S36  1  0.139156  0.622234  0.642530  1
  S  S37  1  0.881002  0.363900  0.630518  1
  S  S38  1  0.901677  0.640057  0.358680  1
  S  S39  1  0.135120  0.370534  0.357447  1
  S  S40  1  0.639156  0.142530  0.622234  1
  S  S41  1  0.401677  0.858680  0.640057  1
  S  S42  1  0.381002  0.130518  0.363900  1
  S  S43  1  0.635120  0.857447  0.370534  1
  S  S44  1  0.639156  0.642530  0.122234  1
  S  S45  1  0.401677  0.358680  0.140057  1
  S  S46  1  0.381002  0.630518  0.863900  1
  S  S47  1  0.635120  0.357447  0.870534  1
  S  S48  1  0.020858  0.968186  0.510659  1
  S  S49  1  0.520858  0.010659  0.968186  1
  S  S50  1  0.020858  0.468186  0.010659  1
  S  S51  1  0.520858  0.510659  0.468186  1
  Br  Br52  1  0.255446  0.224199  0.781645  1
  Br  Br53  1  0.755446  0.781645  0.724199  1
  Br  Br54  1  0.755446  0.281645  0.224199  1
  Br  Br55  1  0.255446  0.724199  0.281645  1
