# generated using pymatgen
data_Li7SiS5I
_symmetry_space_group_name_H-M   'P 1'
_cell_length_a   10.32409655
_cell_length_b   10.29435689
_cell_length_c   10.54878135
_cell_angle_alpha   90.76630175
_cell_angle_beta   90.30182105
_cell_angle_gamma   89.36605671
_symmetry_Int_Tables_number   1
_chemical_formula_structural   Li7SiS5I
_chemical_formula_sum   'Li28 Si4 S20 I4'
_cell_volume   1120.94020714
_cell_formula_units_Z   4
loop_
 _symmetry_equiv_pos_site_id
 _symmetry_equiv_pos_as_xyz
  1  'x, y, z'
loop_
 _atom_site_type_symbol
 _atom_site_label
 _atom_site_symmetry_multiplicity
 _atom_site_fract_x
 _atom_site_fract_y
 _atom_site_fract_z
 _atom_site_occupancy
  Li  Li0  1  0.006639  0.294074  0.772823  1
  Li  Li1  1  0.985534  0.714483  0.768018  1
  Li  Li2  1  0.957463  0.216446  0.441407  1
  Li  Li3  1  0.000929  0.674504  0.180265  1
  Li  Li4  1  0.852615  0.973922  0.297616  1
  Li  Li5  1  0.724752  0.985271  0.759060  1
  Li  Li6  1  0.172395  0.010275  0.296670  1
  Li  Li7  1  0.281734  0.770693  0.978174  1
  Li  Li8  1  0.750393  0.749619  0.958329  1
  Li  Li9  1  0.253963  0.236107  0.969006  1
  Li  Li10  1  0.763685  0.519344  0.745722  1
  Li  Li11  1  0.704212  0.516831  0.296130  1
  Li  Li12  1  0.221235  0.471983  0.772192  1
  Li  Li13  1  0.222607  0.193731  0.513447  1
  Li  Li14  1  0.669416  0.324157  0.515089  1
  Li  Li15  1  0.179124  0.822848  0.512322  1
  Li  Li16  1  0.472514  0.295690  0.308018  1
  Li  Li17  1  0.531300  0.829674  0.192096  1
  Li  Li18  1  0.465462  0.272198  0.724777  1
  Li  Li19  1  0.524833  0.767385  0.770333  1
  Li  Li20  1  0.439575  0.548548  0.236976  1
  Li  Li21  1  0.294184  0.503811  0.478950  1
  Li  Li22  1  0.580083  0.697763  0.515106  1
  Li  Li23  1  0.847230  0.816488  0.516863  1
  Li  Li24  1  0.588917  0.225826  0.027984  1
  Li  Li25  1  0.936729  0.258398  0.053841  1
  Li  Li26  1  0.314774  0.008389  0.762509  1
  Li  Li27  1  0.041911  0.040429  0.697072  1
  Si  Si28  1  0.009656  0.990968  0.980703  1
  Si  Si29  1  0.006103  0.497521  0.486114  1
  Si  Si30  1  0.508405  0.995237  0.489300  1
  Si  Si31  1  0.509950  0.493960  0.975080  1
  S  S32  1  0.116316  0.116444  0.102153  1
  S  S33  1  0.895546  0.865348  0.092745  1
  S  S34  1  0.887610  0.114849  0.866323  1
  S  S35  1  0.128639  0.881656  0.848618  1
  S  S36  1  0.128834  0.612832  0.608343  1
  S  S37  1  0.881221  0.378715  0.599099  1
  S  S38  1  0.892489  0.625978  0.373627  1
  S  S39  1  0.127412  0.369000  0.379310  1
  S  S40  1  0.608349  0.123988  0.614352  1
  S  S41  1  0.399359  0.857760  0.597361  1
  S  S42  1  0.380515  0.097489  0.366689  1
  S  S43  1  0.647241  0.879128  0.382974  1
  S  S44  1  0.618567  0.619863  0.100659  1
  S  S45  1  0.402652  0.365340  0.093957  1
  S  S46  1  0.386815  0.606655  0.857172  1
  S  S47  1  0.630740  0.372765  0.861119  1
  S  S48  1  0.234672  0.233475  0.740388  1
  S  S49  1  0.753698  0.750382  0.726805  1
  S  S50  1  0.019265  0.994483  0.474212  1
  S  S51  1  0.519126  0.483812  0.438761  1
  I  I52  1  0.754303  0.237003  0.245312  1
  I  I53  1  0.259056  0.745952  0.239422  1
  I  I54  1  0.503132  0.975300  0.966180  1
  I  I55  1  0.006126  0.500992  0.958205  1
