# generated using pymatgen
data_Li11P2(S3I)3
_symmetry_space_group_name_H-M   'P 1'
_cell_length_a   10.27333977
_cell_length_b   10.31811698
_cell_length_c   10.29850132
_cell_angle_alpha   90.00000000
_cell_angle_beta   90.00000000
_cell_angle_gamma   91.57412014
_symmetry_Int_Tables_number   1
_chemical_formula_structural   Li11P2(S3I)3
_chemical_formula_sum   'Li22 P4 S18 I6'
_cell_volume   1091.24484497
_cell_formula_units_Z   2
loop_
 _symmetry_equiv_pos_site_id
 _symmetry_equiv_pos_as_xyz
  1  'x, y, z'
loop_
 _atom_site_type_symbol
 _atom_site_label
 _atom_site_symmetry_multiplicity
 _atom_site_fract_x
 _atom_site_fract_y
 _atom_site_fract_z
 _atom_site_occupancy
  I  I0  1  0.254524  0.268831  0.742212  1
  I  I1  1  0.745476  0.731169  0.742212  1
  I  I2  1  0.755687  0.244651  0.260728  1
  I  I3  1  0.244313  0.755349  0.260728  1
  I  I4  1  0.000000  0.000000  0.006737  1
  I  I5  1  0.000000  0.500000  0.503322  1
  Li  Li6  1  0.983391  0.313343  0.691994  1
  Li  Li7  1  0.016609  0.686657  0.691994  1
  Li  Li8  1  0.014716  0.201725  0.203832  1
  Li  Li9  1  0.985284  0.798275  0.203832  1
  Li  Li10  1  0.720932  0.046682  0.452016  1
  Li  Li11  1  0.802640  0.979892  0.814031  1
  Li  Li12  1  0.279068  0.953318  0.452016  1
  Li  Li13  1  0.197360  0.020108  0.814031  1
  Li  Li14  1  0.224304  0.795133  0.005844  1
  Li  Li15  1  0.637552  0.689288  0.991181  1
  Li  Li16  1  0.362448  0.310712  0.991181  1
  Li  Li17  1  0.775696  0.204867  0.005844  1
  Li  Li18  1  0.652928  0.461730  0.820880  1
  Li  Li19  1  0.659700  0.477877  0.174257  1
  Li  Li20  1  0.347072  0.538270  0.820880  1
  Li  Li21  1  0.340300  0.522123  0.174257  1
  Li  Li22  1  0.199223  0.331704  0.483022  1
  Li  Li23  1  0.800777  0.668296  0.483022  1
  Li  Li24  1  0.490003  0.163898  0.311519  1
  Li  Li25  1  0.509997  0.836102  0.311519  1
  Li  Li26  1  0.500210  0.170989  0.641926  1
  Li  Li27  1  0.499790  0.829011  0.641926  1
  P  P28  1  0.000000  0.000000  0.514090  1
  P  P29  1  0.500000  0.000000  0.984785  1
  P  P30  1  0.000000  0.500000  0.002152  1
  P  P31  1  0.500000  0.500000  0.489189  1
  S  S32  1  0.500000  0.000000  0.481081  1
  S  S33  1  0.500000  0.500000  0.995742  1
  S  S34  1  0.117882  0.116915  0.398685  1
  S  S35  1  0.882118  0.883085  0.398685  1
  S  S36  1  0.876494  0.107638  0.625285  1
  S  S37  1  0.123506  0.892362  0.625285  1
  S  S38  1  0.381280  0.106848  0.098636  1
  S  S39  1  0.384942  0.885041  0.860542  1
  S  S40  1  0.618720  0.893152  0.098636  1
  S  S41  1  0.615058  0.114959  0.860542  1
  S  S42  1  0.125835  0.392295  0.110686  1
  S  S43  1  0.880854  0.380978  0.887016  1
  S  S44  1  0.119146  0.619022  0.887016  1
  S  S45  1  0.874165  0.607705  0.110686  1
  S  S46  1  0.384239  0.616428  0.597193  1
  S  S47  1  0.390373  0.381317  0.363557  1
  S  S48  1  0.615761  0.383572  0.597193  1
  S  S49  1  0.609627  0.618683  0.363557  1
