# generated using pymatgen
data_Li7SnSe5Br
_symmetry_space_group_name_H-M   'P 1'
_cell_length_a   11.08264883
_cell_length_b   11.07533610
_cell_length_c   11.07533610
_cell_angle_alpha   91.70161151
_cell_angle_beta   89.32164302
_cell_angle_gamma   89.32164302
_symmetry_Int_Tables_number   1
_chemical_formula_structural   Li7SnSe5Br
_chemical_formula_sum   'Li28 Sn4 Se20 Br4'
_cell_volume   1358.63594172
_cell_formula_units_Z   4
loop_
 _symmetry_equiv_pos_site_id
 _symmetry_equiv_pos_as_xyz
  1  'x, y, z'
loop_
 _atom_site_type_symbol
 _atom_site_label
 _atom_site_symmetry_multiplicity
 _atom_site_fract_x
 _atom_site_fract_y
 _atom_site_fract_z
 _atom_site_occupancy
  Li  Li0  1  0.023438  0.306548  0.790027  1
  Li  Li1  1  0.986225  0.755706  0.740587  1
  Li  Li2  1  0.986225  0.255706  0.240587  1
  Li  Li3  1  0.023438  0.806548  0.290027  1
  Li  Li4  1  0.746592  0.014603  0.233354  1
  Li  Li5  1  0.718370  0.991361  0.779137  1
  Li  Li6  1  0.264340  0.964355  0.244898  1
  Li  Li7  1  0.246592  0.733354  0.014603  1
  Li  Li8  1  0.764340  0.744898  0.964355  1
  Li  Li9  1  0.218370  0.279137  0.991361  1
  Li  Li10  1  0.746592  0.514603  0.733354  1
  Li  Li11  1  0.718370  0.491361  0.279137  1
  Li  Li12  1  0.264340  0.464355  0.744898  1
  Li  Li13  1  0.246592  0.233354  0.514603  1
  Li  Li14  1  0.764340  0.244898  0.464355  1
  Li  Li15  1  0.218370  0.779137  0.491361  1
  Li  Li16  1  0.523438  0.290027  0.306548  1
  Li  Li17  1  0.486225  0.740587  0.255706  1
  Li  Li18  1  0.486225  0.240587  0.755706  1
  Li  Li19  1  0.523438  0.790027  0.806548  1
  Li  Li20  1  0.329326  0.508506  0.303012  1
  Li  Li21  1  0.075389  0.546360  0.212831  1
  Li  Li22  1  0.575389  0.712831  0.546360  1
  Li  Li23  1  0.829326  0.803012  0.508506  1
  Li  Li24  1  0.575389  0.212831  0.046360  1
  Li  Li25  1  0.829326  0.303012  0.008506  1
  Li  Li26  1  0.329326  0.008506  0.803012  1
  Li  Li27  1  0.075389  0.046360  0.712831  1
  Sn  Sn28  1  0.014394  -0.000904  0.000013  1
  Sn  Sn29  1  0.014394  0.499096  0.500013  1
  Sn  Sn30  1  0.514394  0.000013  0.499096  1
  Sn  Sn31  1  0.514394  0.500013  -0.000904  1
  Se  Se32  1  0.144307  0.122406  0.140265  1
  Se  Se33  1  0.880360  0.863027  0.120226  1
  Se  Se34  1  0.893929  0.125666  0.853409  1
  Se  Se35  1  0.149662  0.871552  0.857038  1
  Se  Se36  1  0.144307  0.622406  0.640265  1
  Se  Se37  1  0.880360  0.363027  0.620226  1
  Se  Se38  1  0.893929  0.625666  0.353409  1
  Se  Se39  1  0.149662  0.371552  0.357038  1
  Se  Se40  1  0.644307  0.140265  0.622406  1
  Se  Se41  1  0.393929  0.853409  0.625666  1
  Se  Se42  1  0.380360  0.120226  0.363027  1
  Se  Se43  1  0.649662  0.857038  0.371552  1
  Se  Se44  1  0.644307  0.640265  0.122406  1
  Se  Se45  1  0.393929  0.353409  0.125666  1
  Se  Se46  1  0.380360  0.620226  0.863027  1
  Se  Se47  1  0.649662  0.357038  0.871552  1
  Se  Se48  1  0.248491  0.231017  0.748938  1
  Se  Se49  1  0.748491  0.748938  0.731017  1
  Se  Se50  1  0.748491  0.248938  0.231017  1
  Se  Se51  1  0.248491  0.731017  0.248938  1
  Br  Br52  1  0.025177  0.934936  0.504015  1
  Br  Br53  1  0.525177  0.004015  0.934936  1
  Br  Br54  1  0.025177  0.434936  0.004015  1
  Br  Br55  1  0.525177  0.504015  0.434936  1
