# generated using pymatgen
data_Li7SiSe5Cl
_symmetry_space_group_name_H-M   'P 1'
_cell_length_a   10.68388538
_cell_length_b   10.83677255
_cell_length_c   10.54791238
_cell_angle_alpha   91.03983642
_cell_angle_beta   88.92305362
_cell_angle_gamma   89.41222794
_symmetry_Int_Tables_number   1
_chemical_formula_structural   Li7SiSe5Cl
_chemical_formula_sum   'Li28 Si4 Se20 Cl4'
_cell_volume   1220.73958991
_cell_formula_units_Z   4
loop_
 _symmetry_equiv_pos_site_id
 _symmetry_equiv_pos_as_xyz
  1  'x, y, z'
loop_
 _atom_site_type_symbol
 _atom_site_label
 _atom_site_symmetry_multiplicity
 _atom_site_fract_x
 _atom_site_fract_y
 _atom_site_fract_z
 _atom_site_occupancy
  Li  Li0  1  0.020466  0.313245  0.804445  1
  Li  Li1  1  0.989871  0.768029  0.698084  1
  Li  Li2  1  0.987700  0.270310  0.203401  1
  Li  Li3  1  0.013857  0.798052  0.291530  1
  Li  Li4  1  0.815302  0.016297  0.324215  1
  Li  Li5  1  0.797527  0.980240  0.685279  1
  Li  Li6  1  0.137000  0.082502  0.364528  1
  Li  Li7  1  0.242896  0.743012  0.019934  1
  Li  Li8  1  0.786044  0.725247  0.956542  1
  Li  Li9  1  0.219267  0.284957  0.998172  1
  Li  Li10  1  0.731035  0.518622  0.709066  1
  Li  Li11  1  0.690388  0.481341  0.292158  1
  Li  Li12  1  0.273039  0.472657  0.748373  1
  Li  Li13  1  0.297530  0.256175  0.524163  1
  Li  Li14  1  0.735431  0.266441  0.469917  1
  Li  Li15  1  0.201331  0.807433  0.500607  1
  Li  Li16  1  0.516387  0.227985  0.225066  1
  Li  Li17  1  0.538386  0.836389  0.158833  1
  Li  Li18  1  0.484331  0.237871  0.769848  1
  Li  Li19  1  0.537231  0.810649  0.816168  1
  Li  Li20  1  0.347319  0.513644  0.333780  1
  Li  Li21  1  0.092143  0.526295  0.206030  1
  Li  Li22  1  0.555761  0.708607  0.547816  1
  Li  Li23  1  0.819951  0.776886  0.490966  1
  Li  Li24  1  0.804362  0.328457  0.015919  1
  Li  Li25  1  0.719714  0.062767  0.043751  1
  Li  Li26  1  0.323071  0.011561  0.836791  1
  Li  Li27  1  0.081873  0.056946  0.698726  1
  Si  Si28  1  0.007426  0.998344  0.997238  1
  Si  Si29  1  0.014452  0.484015  0.493035  1
  Si  Si30  1  0.505308  0.995092  0.498698  1
  Si  Si31  1  0.510530  0.506881  0.996369  1
  Se  Se32  1  0.140705  0.101499  0.124164  1
  Se  Se33  1  0.871932  0.882222  0.115646  1
  Se  Se34  1  0.887684  0.121526  0.868828  1
  Se  Se35  1  0.126889  0.874809  0.862991  1
  Se  Se36  1  0.142584  0.606099  0.610401  1
  Se  Se37  1  0.888394  0.367269  0.616823  1
  Se  Se38  1  0.898559  0.593998  0.350741  1
  Se  Se39  1  0.145169  0.356860  0.370020  1
  Se  Se40  1  0.625286  0.124095  0.616663  1
  Se  Se41  1  0.389839  0.872730  0.631428  1
  Se  Se42  1  0.377709  0.098049  0.365568  1
  Se  Se43  1  0.630327  0.864724  0.375453  1
  Se  Se44  1  0.639828  0.626899  0.114221  1
  Se  Se45  1  0.384278  0.392904  0.126385  1
  Se  Se46  1  0.390113  0.629516  0.872872  1
  Se  Se47  1  0.631414  0.379047  0.869299  1
  Se  Se48  1  0.249086  0.235067  0.758122  1
  Se  Se49  1  0.751530  0.748228  0.721578  1
  Se  Se50  1  0.751674  0.233809  0.231987  1
  Se  Se51  1  0.996016  0.944612  0.495271  1
  Cl  Cl52  1  0.221349  0.710128  0.241936  1
  Cl  Cl53  1  0.515455  0.972675  0.983403  1
  Cl  Cl54  1  0.016939  0.420098  0.017757  1
  Cl  Cl55  1  0.530311  0.501970  0.464771  1
