# generated using pymatgen
data_Li7SnSe5Br
_symmetry_space_group_name_H-M   'P 1'
_cell_length_a   11.06251164
_cell_length_b   11.14229990
_cell_length_c   11.03354877
_cell_angle_alpha   92.19913700
_cell_angle_beta   89.00397518
_cell_angle_gamma   89.35223230
_symmetry_Int_Tables_number   1
_chemical_formula_structural   Li7SnSe5Br
_chemical_formula_sum   'Li28 Sn4 Se20 Br4'
_cell_volume   1358.71076492
_cell_formula_units_Z   4
loop_
 _symmetry_equiv_pos_site_id
 _symmetry_equiv_pos_as_xyz
  1  'x, y, z'
loop_
 _atom_site_type_symbol
 _atom_site_label
 _atom_site_symmetry_multiplicity
 _atom_site_fract_x
 _atom_site_fract_y
 _atom_site_fract_z
 _atom_site_occupancy
  Li  Li0  1  0.004486  0.316757  0.809727  1
  Li  Li1  1  0.977293  0.743579  0.774404  1
  Li  Li2  1  0.017088  0.186838  0.323685  1
  Li  Li3  1  0.040756  0.806011  0.284492  1
  Li  Li4  1  0.836583  0.990695  0.327723  1
  Li  Li5  1  0.712696  0.993984  0.785821  1
  Li  Li6  1  0.213099  0.998771  0.305303  1
  Li  Li7  1  0.254667  0.761371  0.988091  1
  Li  Li8  1  0.736370  0.787503  0.968706  1
  Li  Li9  1  0.228310  0.298116  0.980669  1
  Li  Li10  1  0.753094  0.528637  0.722149  1
  Li  Li11  1  0.697860  0.568921  0.313205  1
  Li  Li12  1  0.225341  0.483537  0.780522  1
  Li  Li13  1  0.225597  0.207342  0.518661  1
  Li  Li14  1  0.718051  0.288931  0.484797  1
  Li  Li15  1  0.182677  0.838271  0.556525  1
  Li  Li16  1  0.396256  0.100010  0.127240  1
  Li  Li17  1  0.523435  0.832737  0.170831  1
  Li  Li18  1  0.468426  0.298270  0.702757  1
  Li  Li19  1  0.521032  0.806755  0.816245  1
  Li  Li20  1  0.401848  0.370764  0.336927  1
  Li  Li21  1  0.050419  0.477666  0.198997  1
  Li  Li22  1  0.578953  0.717129  0.558992  1
  Li  Li23  1  0.852994  0.805608  0.513541  1
  Li  Li24  1  0.555791  0.212745  0.956481  1
  Li  Li25  1  0.748435  0.059498  0.073019  1
  Li  Li26  1  0.334825  0.029865  0.790875  1
  Li  Li27  1  0.042312  0.065631  0.694829  1
  Sn  Sn28  1  0.025084  0.012675  0.994574  1
  Sn  Sn29  1  0.024163  0.500175  0.500057  1
  Sn  Sn30  1  0.523192  0.000328  0.496094  1
  Sn  Sn31  1  0.518212  0.505987  0.986593  1
  Se  Se32  1  0.158041  0.139576  0.130987  1
  Se  Se33  1  0.891632  0.875787  0.119035  1
  Se  Se34  1  0.878129  0.135099  0.872895  1
  Se  Se35  1  0.148103  0.891091  0.835254  1
  Se  Se36  1  0.134713  0.638372  0.643075  1
  Se  Se37  1  0.887210  0.366195  0.618054  1
  Se  Se38  1  0.917259  0.623439  0.340364  1
  Se  Se39  1  0.162235  0.364731  0.364551  1
  Se  Se40  1  0.631671  0.143628  0.636064  1
  Se  Se41  1  0.399016  0.860904  0.626440  1
  Se  Se42  1  0.390291  0.128344  0.363454  1
  Se  Se43  1  0.659599  0.850251  0.374335  1
  Se  Se44  1  0.645999  0.645579  0.114781  1
  Se  Se45  1  0.415234  0.340839  0.106893  1
  Se  Se46  1  0.383638  0.629440  0.854466  1
  Se  Se47  1  0.641010  0.375985  0.836649  1
  Se  Se48  1  0.241539  0.241927  0.746142  1
  Se  Se49  1  0.751089  0.760802  0.730713  1
  Se  Se50  1  0.033212  0.981514  0.460087  1
  Se  Se51  1  0.544927  0.984424  0.981554  1
  Br  Br52  1  0.791376  0.204494  0.270816  1
  Br  Br53  1  0.271717  0.792746  0.213313  1
  Br  Br54  1  0.070301  0.474056  0.972332  1
  Br  Br55  1  0.562712  0.481448  0.470995  1
