# generated using pymatgen
data_Li7GeS5Br
_symmetry_space_group_name_H-M   'P 1'
_cell_length_a   10.35885111
_cell_length_b   10.30042989
_cell_length_c   10.33318872
_cell_angle_alpha   90.74055844
_cell_angle_beta   90.20156290
_cell_angle_gamma   88.81980971
_symmetry_Int_Tables_number   1
_chemical_formula_structural   Li7GeS5Br
_chemical_formula_sum   'Li28 Ge4 S20 Br4'
_cell_volume   1102.22583922
_cell_formula_units_Z   4
loop_
 _symmetry_equiv_pos_site_id
 _symmetry_equiv_pos_as_xyz
  1  'x, y, z'
loop_
 _atom_site_type_symbol
 _atom_site_label
 _atom_site_symmetry_multiplicity
 _atom_site_fract_x
 _atom_site_fract_y
 _atom_site_fract_z
 _atom_site_occupancy
  Li  Li0  1  0.021281  0.308885  0.794450  1
  Li  Li1  1  0.999641  0.704382  0.785853  1
  Li  Li2  1  0.014758  0.198418  0.313100  1
  Li  Li3  1  0.013395  0.813200  0.284171  1
  Li  Li4  1  0.822966  0.005054  0.327285  1
  Li  Li5  1  0.741012  0.982449  0.762368  1
  Li  Li6  1  0.205479  0.997692  0.308309  1
  Li  Li7  1  0.312853  0.811272  0.001631  1
  Li  Li8  1  0.785758  0.724423  0.975304  1
  Li  Li9  1  0.208069  0.305768  0.990337  1
  Li  Li10  1  0.748967  0.513842  0.727579  1
  Li  Li11  1  0.729035  0.496010  0.282267  1
  Li  Li12  1  0.241925  0.492850  0.778702  1
  Li  Li13  1  0.224170  0.214695  0.534741  1
  Li  Li14  1  0.728320  0.282220  0.493987  1
  Li  Li15  1  0.202472  0.818741  0.515029  1
  Li  Li16  1  0.394648  0.121925  0.144500  1
  Li  Li17  1  0.561636  0.840057  0.167204  1
  Li  Li18  1  0.486993  0.321240  0.680823  1
  Li  Li19  1  0.536351  0.807351  0.822898  1
  Li  Li20  1  0.389671  0.372723  0.336994  1
  Li  Li21  1  0.100391  0.536415  0.207012  1
  Li  Li22  1  0.580794  0.720511  0.560310  1
  Li  Li23  1  0.856014  0.798438  0.518579  1
  Li  Li24  1  0.470302  0.218421  0.916164  1
  Li  Li25  1  0.720828  0.088784  0.034026  1
  Li  Li26  1  0.327411  0.020624  0.802358  1
  Li  Li27  1  0.030761  0.023593  0.692280  1
  Ge  Ge28  1  0.017293  0.006325  0.993753  1
  Ge  Ge29  1  0.025592  0.501381  0.495908  1
  Ge  Ge30  1  0.517583  0.004172  0.502000  1
  Ge  Ge31  1  0.518150  0.502143  0.989651  1
  S  S32  1  0.142215  0.126522  0.123661  1
  S  S33  1  0.875073  0.896166  0.112333  1
  S  S34  1  0.892294  0.127908  0.863720  1
  S  S35  1  0.137444  0.883293  0.858918  1
  S  S36  1  0.141878  0.628915  0.621295  1
  S  S37  1  0.901004  0.374062  0.611411  1
  S  S38  1  0.911554  0.619882  0.352703  1
  S  S39  1  0.153877  0.372915  0.371421  1
  S  S40  1  0.628921  0.133862  0.630689  1
  S  S41  1  0.403072  0.870962  0.625169  1
  S  S42  1  0.383544  0.125603  0.379521  1
  S  S43  1  0.648796  0.869321  0.386932  1
  S  S44  1  0.641085  0.624391  0.117708  1
  S  S45  1  0.396605  0.363503  0.105438  1
  S  S46  1  0.395034  0.633437  0.870810  1
  S  S47  1  0.634143  0.368221  0.862793  1
  S  S48  1  0.265310  0.252957  0.762746  1
  S  S49  1  0.763438  0.749812  0.738792  1
  S  S50  1  0.024765  0.982196  0.458878  1
  S  S51  1  0.503746  0.988404  0.986061  1
  Br  Br52  1  0.775089  0.239272  0.255142  1
  Br  Br53  1  0.251483  0.758232  0.241129  1
  Br  Br54  1  0.038408  0.503081  0.963403  1
  Br  Br55  1  0.556701  0.478856  0.485536  1
