data_c00004_contcar
_audit_creation_date              2019-04-10
_audit_creation_method            'Materials Studio'
_symmetry_space_group_name_H-M    'P1'
_symmetry_Int_Tables_number       1
_symmetry_cell_setting            triclinic
loop_
_symmetry_equiv_pos_as_xyz
  x,y,z
_cell_length_a                    9.9390
_cell_length_b                    9.9502
_cell_length_c                    10.5265
_cell_angle_alpha                 90.0000
_cell_angle_beta                  90.0000
_cell_angle_gamma                 90.0000
loop_
_atom_site_label
_atom_site_type_symbol
_atom_site_fract_x
_atom_site_fract_y
_atom_site_fract_z
_atom_site_U_iso_or_equiv
_atom_site_adp_type
_atom_site_occupancy
Cl1    Cl    0.25000   0.23259   0.75000   0.00000  Uiso   1.00
Cl2    Cl    0.75000   0.76741   0.75000   0.00000  Uiso   1.00
Cl3    Cl    0.50000   0.50000   0.42416   0.00000  Uiso   1.00
Cl4    Cl    0.00000   0.50000   0.07584   0.00000  Uiso   1.00
Li5    Li    0.00250   0.18834   0.71536   0.00000  Uiso   1.00
Li6    Li    0.52662   0.30814   0.31066   0.00000  Uiso   1.00
Li7    Li   -0.00250   0.81166   0.71536   0.00000  Uiso   1.00
Li8    Li    0.47338   0.69186   0.31066   0.00000  Uiso   1.00
Li9    Li    0.97338   0.30814   0.18934   0.00000  Uiso   1.00
Li10   Li    0.49750   0.18834   0.78464   0.00000  Uiso   1.00
Li11   Li    0.02662   0.69186   0.18934   0.00000  Uiso   1.00
Li12   Li    0.50250   0.81166   0.78464   0.00000  Uiso   1.00
Li13   Li    0.75000   0.02549   0.25000   0.00000  Uiso   1.00
Li14   Li    0.75000   0.52976   0.75000   0.00000  Uiso   1.00
Li15   Li    0.75000   0.00485   0.75000   0.00000  Uiso   1.00
Li16   Li    0.75000   0.48945   0.25000   0.00000  Uiso   1.00
Li17   Li    0.25000   0.97451   0.25000   0.00000  Uiso   1.00
Li18   Li    0.25000   0.47024   0.75000   0.00000  Uiso   1.00
Li19   Li    0.25000  -0.00485   0.75000   0.00000  Uiso   1.00
Li20   Li    0.25000   0.51055   0.25000   0.00000  Uiso   1.00
Li21   Li    0.32665   0.79986   0.03497   0.00000  Uiso   1.00
Li22   Li    0.17296   0.15915   0.50096   0.00000  Uiso   1.00
Li23   Li    0.67296   0.84085  -0.00096   0.00000  Uiso   1.00
Li24   Li    0.82665   0.20014   0.46503   0.00000  Uiso   1.00
Li25   Li    0.32704   0.15915  -0.00096   0.00000  Uiso   1.00
Li26   Li    0.17335   0.79986   0.46503   0.00000  Uiso   1.00
Li27   Li    0.67335   0.20014   0.03497   0.00000  Uiso   1.00
Li28   Li    0.82704   0.84085   0.50096   0.00000  Uiso   1.00
P29    P     0.00000   0.00000   0.00968   0.00000  Uiso   1.00
P30    P     0.00000   0.50000   0.50570   0.00000  Uiso   1.00
P31    P     0.50000   0.00000   0.49032   0.00000  Uiso   1.00
P32    P     0.50000   0.50000  -0.00570   0.00000  Uiso   1.00
S33    S     0.12201   0.11900   0.12012   0.00000  Uiso   1.00
S34    S     0.12109   0.61701   0.62002   0.00000  Uiso   1.00
S35    S     0.61858   0.12675   0.59575   0.00000  Uiso   1.00
S36    S     0.61001   0.62941   0.10409   0.00000  Uiso   1.00
S37    S     0.87799   0.88100   0.12012   0.00000  Uiso   1.00
S38    S     0.87891   0.38299   0.62002   0.00000  Uiso   1.00
S39    S     0.38142   0.87325   0.59575   0.00000  Uiso   1.00
S40    S     0.38999   0.37059   0.10409   0.00000  Uiso   1.00
S41    S     0.88142   0.12675   0.90425   0.00000  Uiso   1.00
S42    S     0.88999   0.62941   0.39591   0.00000  Uiso   1.00
S43    S     0.37799   0.11900   0.37988   0.00000  Uiso   1.00
S44    S     0.37891   0.61701   0.87999   0.00000  Uiso   1.00
S45    S     0.11858   0.87325   0.90425   0.00000  Uiso   1.00
S46    S     0.11002   0.37059   0.39591   0.00000  Uiso   1.00
S47    S     0.62201   0.88100   0.37988   0.00000  Uiso   1.00
S48    S     0.62109   0.38299   0.87999   0.00000  Uiso   1.00
S49    S     0.25000   0.74899   0.25000   0.00000  Uiso   1.00
S50    S     0.75000   0.25101   0.25000   0.00000  Uiso   1.00
S51    S     0.00000   0.00000   0.56430   0.00000  Uiso   1.00
S52    S     0.50000   0.00000  -0.06431   0.00000  Uiso   1.00
loop_
_geom_bond_atom_site_label_1
_geom_bond_atom_site_label_2
_geom_bond_distance
_geom_bond_site_symmetry_2
_ccdc_geom_bond_type
P29    S33     2.055   .     S
P29    S37     2.055   1_445 S
P29    S41     2.052   1_454 S
P29    S45     2.052   1_544 D
P30    S34     2.062   .     S
P30    S38     2.062   1_455 S
P30    S42     2.047   1_455 S
P30    S46     2.047   .     D
P31    S35     2.052   .     S
P31    S39     2.052   1_545 S
P31    S43     2.055   .     S
P31    S47     2.055   1_545 D
P32    S36     2.047   .     D
P32    S40     2.047   .     S
P32    S44     2.062   1_554 S
P32    S48     2.062   1_554 S
S37    P29     2.055   1_665 S
S38    P30     2.062   1_655 S
S39    P31     2.052   1_565 S
S41    P29     2.052   1_656 S
S42    P30     2.047   1_655 S
S44    P32     2.062   1_556 S
S45    P29     2.052   1_566 D
S47    P31     2.055   1_565 D
S48    P32     2.062   1_556 S
