# generated using pymatgen
data_Li7GeSe5Br
_symmetry_space_group_name_H-M   'P 1'
_cell_length_a   10.76933412
_cell_length_b   10.64416437
_cell_length_c   11.05797316
_cell_angle_alpha   91.13829774
_cell_angle_beta   91.09571459
_cell_angle_gamma   87.61512209
_symmetry_Int_Tables_number   1
_chemical_formula_structural   Li7GeSe5Br
_chemical_formula_sum   'Li28 Ge4 Se20 Br4'
_cell_volume   1266.02143142
_cell_formula_units_Z   4
loop_
 _symmetry_equiv_pos_site_id
 _symmetry_equiv_pos_as_xyz
  1  'x, y, z'
loop_
 _atom_site_type_symbol
 _atom_site_label
 _atom_site_symmetry_multiplicity
 _atom_site_fract_x
 _atom_site_fract_y
 _atom_site_fract_z
 _atom_site_occupancy
  Li  Li0  1  0.009538  0.287923  0.751166  1
  Li  Li1  1  0.998816  0.712225  0.798184  1
  Li  Li2  1  0.980404  0.202921  0.324760  1
  Li  Li3  1  0.010308  0.790099  0.271809  1
  Li  Li4  1  0.806064  0.997181  0.287942  1
  Li  Li5  1  0.708841  0.978524  0.765901  1
  Li  Li6  1  0.187512  0.002911  0.275520  1
  Li  Li7  1  0.373440  0.778570  0.974944  1
  Li  Li8  1  0.707157  0.780643  0.962547  1
  Li  Li9  1  0.220399  0.251111  0.958629  1
  Li  Li10  1  0.805011  0.505858  0.791367  1
  Li  Li11  1  0.678732  0.534969  0.276653  1
  Li  Li12  1  0.198543  0.474546  0.779735  1
  Li  Li13  1  0.198261  0.181727  0.499887  1
  Li  Li14  1  0.673111  0.304863  0.484869  1
  Li  Li15  1  0.177260  0.818160  0.488004  1
  Li  Li16  1  0.486493  0.305908  0.296718  1
  Li  Li17  1  0.460812  0.733800  0.416001  1
  Li  Li18  1  0.468211  0.331657  0.727945  1
  Li  Li19  1  0.534452  0.730221  0.709943  1
  Li  Li20  1  0.382677  0.549199  0.231128  1
  Li  Li21  1  0.293651  0.471290  0.511623  1
  Li  Li22  1  0.721215  0.592737  0.540233  1
  Li  Li23  1  0.847581  0.835296  0.522962  1
  Li  Li24  1  0.571687  0.189471  0.040622  1
  Li  Li25  1  0.892395  0.276315  0.001616  1
  Li  Li26  1  0.398728  0.054444  0.751830  1
  Li  Li27  1  0.095761  0.022971  0.703136  1
  Ge  Ge28  1  0.008007  0.989417  0.985486  1
  Ge  Ge29  1  -0.000190  0.500287  0.482057  1
  Ge  Ge30  1  0.500859  0.008163  0.485582  1
  Ge  Ge31  1  0.515604  0.485049  0.977403  1
  Se  Se32  1  0.085881  0.153620  0.113643  1
  Se  Se33  1  0.874520  0.866993  0.099177  1
  Se  Se34  1  0.896101  0.101585  0.828062  1
  Se  Se35  1  0.161662  0.867369  0.877472  1
  Se  Se36  1  0.128441  0.625411  0.611776  1
  Se  Se37  1  0.860976  0.380393  0.595429  1
  Se  Se38  1  0.869446  0.638213  0.364573  1
  Se  Se39  1  0.138240  0.372102  0.365181  1
  Se  Se40  1  0.597370  0.143049  0.630990  1
  Se  Se41  1  0.375196  0.870745  0.600763  1
  Se  Se42  1  0.370933  0.121279  0.348484  1
  Se  Se43  1  0.646468  0.868025  0.389063  1
  Se  Se44  1  0.569347  0.655720  0.106724  1
  Se  Se45  1  0.387345  0.352101  0.091246  1
  Se  Se46  1  0.400387  0.579139  0.813657  1
  Se  Se47  1  0.669241  0.343438  0.893653  1
  Se  Se48  1  0.240336  0.239110  0.726957  1
  Se  Se49  1  0.764871  0.737863  0.733830  1
  Se  Se50  1  0.017368  0.993837  0.444288  1
  Se  Se51  1  0.514413  0.497514  0.437755  1
  Br  Br52  1  0.731543  0.238915  0.254169  1
  Br  Br53  1  0.250103  0.754675  0.265834  1
  Br  Br54  1  0.527210  0.973463  0.937191  1
  Br  Br55  1  0.011263  0.472764  0.919661  1
