# generated using pymatgen
data_Li23P4S19I5
_symmetry_space_group_name_H-M   'P 1'
_cell_length_a   10.38268305
_cell_length_b   10.29277917
_cell_length_c   10.27618411
_cell_angle_alpha   91.75299310
_cell_angle_beta   89.36449638
_cell_angle_gamma   91.24865224
_symmetry_Int_Tables_number   1
_chemical_formula_structural   Li23P4S19I5
_chemical_formula_sum   'Li23 P4 S19 I5'
_cell_volume   1097.34718913
_cell_formula_units_Z   1
loop_
 _symmetry_equiv_pos_site_id
 _symmetry_equiv_pos_as_xyz
  1  'x, y, z'
loop_
 _atom_site_type_symbol
 _atom_site_label
 _atom_site_symmetry_multiplicity
 _atom_site_fract_x
 _atom_site_fract_y
 _atom_site_fract_z
 _atom_site_occupancy
  I  I0  1  0.254553  0.252507  0.741506  1
  I  I1  1  0.752069  0.735458  0.733567  1
  I  I2  1  0.967859  0.007296  0.979965  1
  I  I3  1  0.979313  0.482299  0.459048  1
  I  I4  1  0.469843  0.006097  0.469888  1
  Li  Li5  1  0.003758  0.204174  0.796035  1
  Li  Li6  1  0.001247  0.802811  0.796665  1
  Li  Li7  1  0.981137  0.264563  0.259235  1
  Li  Li8  1  0.029482  0.771737  0.213057  1
  Li  Li9  1  0.768511  0.010722  0.220209  1
  Li  Li10  1  0.769119  0.994040  0.776502  1
  Li  Li11  1  0.286665  0.968774  0.248744  1
  Li  Li12  1  0.309016  0.000109  0.686326  1
  Li  Li13  1  0.278980  0.709677  0.003879  1
  Li  Li14  1  0.475813  0.683325  0.170142  1
  Li  Li15  1  0.355617  0.368750  0.064157  1
  Li  Li16  1  0.774477  0.219406  0.018911  1
  Li  Li17  1  0.706245  0.558672  0.938213  1
  Li  Li18  1  0.774520  0.466989  0.259738  1
  Li  Li19  1  0.297926  0.509055  0.785599  1
  Li  Li20  1  0.192141  0.526190  0.287928  1
  Li  Li21  1  0.292003  0.215164  0.480081  1
  Li  Li22  1  0.779955  0.271596  0.472322  1
  Li  Li23  1  0.290486  0.779243  0.452327  1
  Li  Li24  1  0.801231  0.682537  0.479632  1
  Li  Li25  1  0.531034  0.206199  0.278465  1
  Li  Li26  1  0.513716  0.338999  0.805831  1
  Li  Li27  1  0.498007  0.702807  0.791791  1
  P  P28  1  0.003126  0.993395  0.487631  1
  P  P29  1  0.494565  0.007860  0.989976  1
  P  P30  1  0.996539  0.497444  0.990613  1
  P  P31  1  0.496874  0.498834  0.473244  1
  S  S32  1  0.754602  0.238450  0.244347  1
  S  S33  1  0.252754  0.740166  0.229316  1
  S  S34  1  0.470576  0.532091  0.950657  1
  S  S35  1  0.115138  0.104057  0.365016  1
  S  S36  1  0.885045  0.875853  0.372248  1
  S  S37  1  0.889741  0.110850  0.605828  1
  S  S38  1  0.116990  0.879442  0.599154  1
  S  S39  1  0.382067  0.129213  0.105083  1
  S  S40  1  0.374358  0.890818  0.873770  1
  S  S41  1  0.602697  0.888076  0.094911  1
  S  S42  1  0.606768  0.127752  0.872740  1
  S  S43  1  0.113765  0.383984  0.097864  1
  S  S44  1  0.872396  0.384127  0.877607  1
  S  S45  1  0.107644  0.613186  0.870400  1
  S  S46  1  0.878560  0.615210  0.102101  1
  S  S47  1  0.380287  0.615916  0.588904  1
  S  S48  1  0.379450  0.385721  0.347511  1
  S  S49  1  0.603554  0.385489  0.586582  1
  S  S50  1  0.611369  0.612869  0.354733  1
