# generated using pymatgen
data_Li7SnS5Cl
_symmetry_space_group_name_H-M   'P 1'
_cell_length_a   10.52949314
_cell_length_b   10.53314680
_cell_length_c   10.53314680
_cell_angle_alpha   91.73875090
_cell_angle_beta   89.22447035
_cell_angle_gamma   89.22447035
_symmetry_Int_Tables_number   1
_chemical_formula_structural   Li7SnS5Cl
_chemical_formula_sum   'Li28 Sn4 S20 Cl4'
_cell_volume   1167.45906664
_cell_formula_units_Z   4
loop_
 _symmetry_equiv_pos_site_id
 _symmetry_equiv_pos_as_xyz
  1  'x, y, z'
loop_
 _atom_site_type_symbol
 _atom_site_label
 _atom_site_symmetry_multiplicity
 _atom_site_fract_x
 _atom_site_fract_y
 _atom_site_fract_z
 _atom_site_occupancy
  Li  Li0  1  0.023703  0.306227  0.789893  1
  Li  Li1  1  0.987837  0.749841  0.745341  1
  Li  Li2  1  0.987837  0.249841  0.245341  1
  Li  Li3  1  0.023703  0.806227  0.289893  1
  Li  Li4  1  0.747613  0.012878  0.238128  1
  Li  Li5  1  0.719732  0.995215  0.780006  1
  Li  Li6  1  0.263448  0.968191  0.247539  1
  Li  Li7  1  0.247613  0.738128  0.012878  1
  Li  Li8  1  0.763448  0.747539  0.968191  1
  Li  Li9  1  0.219732  0.280006  0.995215  1
  Li  Li10  1  0.747613  0.512878  0.738128  1
  Li  Li11  1  0.719732  0.495215  0.280006  1
  Li  Li12  1  0.263448  0.468191  0.747539  1
  Li  Li13  1  0.247613  0.238128  0.512878  1
  Li  Li14  1  0.763448  0.247539  0.468191  1
  Li  Li15  1  0.219732  0.780006  0.495215  1
  Li  Li16  1  0.523703  0.289893  0.306227  1
  Li  Li17  1  0.487837  0.745341  0.249841  1
  Li  Li18  1  0.487837  0.245341  0.749841  1
  Li  Li19  1  0.523703  0.789893  0.806227  1
  Li  Li20  1  0.328477  0.509114  0.303654  1
  Li  Li21  1  0.071826  0.542783  0.205913  1
  Li  Li22  1  0.571826  0.705913  0.542783  1
  Li  Li23  1  0.828477  0.803654  0.509114  1
  Li  Li24  1  0.571826  0.205913  0.042783  1
  Li  Li25  1  0.828477  0.303654  0.009114  1
  Li  Li26  1  0.328477  0.009114  0.803654  1
  Li  Li27  1  0.071826  0.042783  0.705913  1
  Sn  Sn28  1  0.013115  -0.000140  0.999794  1
  Sn  Sn29  1  0.013115  0.499860  0.499794  1
  Sn  Sn30  1  0.513115  0.999794  0.499860  1
  Sn  Sn31  1  0.513115  0.499794  -0.000140  1
  S  S32  1  0.143923  0.120724  0.138092  1
  S  S33  1  0.881266  0.865107  0.120949  1
  S  S34  1  0.895739  0.126475  0.853296  1
  S  S35  1  0.147013  0.873905  0.855987  1
  S  S36  1  0.143923  0.620724  0.638092  1
  S  S37  1  0.881266  0.365107  0.620949  1
  S  S38  1  0.895739  0.626475  0.353296  1
  S  S39  1  0.147013  0.373905  0.355987  1
  S  S40  1  0.643923  0.138092  0.620724  1
  S  S41  1  0.395739  0.853296  0.626475  1
  S  S42  1  0.381266  0.120949  0.365107  1
  S  S43  1  0.647013  0.855987  0.373905  1
  S  S44  1  0.643923  0.638092  0.120724  1
  S  S45  1  0.395739  0.353296  0.126475  1
  S  S46  1  0.381266  0.620949  0.865107  1
  S  S47  1  0.647013  0.355987  0.873905  1
  S  S48  1  0.250065  0.233810  0.747726  1
  S  S49  1  0.750065  0.747726  0.733810  1
  S  S50  1  0.750065  0.247726  0.233810  1
  S  S51  1  0.250065  0.733810  0.247726  1
  Cl  Cl52  1  0.026242  0.930107  0.502334  1
  Cl  Cl53  1  0.526242  0.002334  0.930107  1
  Cl  Cl54  1  0.026242  0.430107  0.002334  1
  Cl  Cl55  1  0.526242  0.502334  0.430107  1
