# generated using pymatgen
data_Li7GeS5Br
_symmetry_space_group_name_H-M   'P 1'
_cell_length_a   10.37899662
_cell_length_b   10.30184836
_cell_length_c   10.38751434
_cell_angle_alpha   90.27372950
_cell_angle_beta   89.88178912
_cell_angle_gamma   87.57951897
_symmetry_Int_Tables_number   1
_chemical_formula_structural   Li7GeS5Br
_chemical_formula_sum   'Li28 Ge4 S20 Br4'
_cell_volume   1109.65617864
_cell_formula_units_Z   4
loop_
 _symmetry_equiv_pos_site_id
 _symmetry_equiv_pos_as_xyz
  1  'x, y, z'
loop_
 _atom_site_type_symbol
 _atom_site_label
 _atom_site_symmetry_multiplicity
 _atom_site_fract_x
 _atom_site_fract_y
 _atom_site_fract_z
 _atom_site_occupancy
  Li  Li0  1  0.017841  0.289982  0.765220  1
  Li  Li1  1  0.993367  0.709051  0.780644  1
  Li  Li2  1  0.997898  0.192346  0.327315  1
  Li  Li3  1  0.007872  0.784378  0.269586  1
  Li  Li4  1  0.810218  0.990089  0.285152  1
  Li  Li5  1  0.715811  0.982951  0.765744  1
  Li  Li6  1  0.198027  0.001670  0.279983  1
  Li  Li7  1  0.302323  0.778750  0.981992  1
  Li  Li8  1  0.743727  0.757235  0.961205  1
  Li  Li9  1  0.229144  0.259279  0.976505  1
  Li  Li10  1  0.791763  0.506865  0.769298  1
  Li  Li11  1  0.710956  0.500824  0.274845  1
  Li  Li12  1  0.211926  0.473085  0.778317  1
  Li  Li13  1  0.255765  0.240297  0.513069  1
  Li  Li14  1  0.669028  0.333884  0.524495  1
  Li  Li15  1  0.177957  0.823005  0.507689  1
  Li  Li16  1  0.498721  0.298727  0.304684  1
  Li  Li17  1  0.508449  0.701952  0.286495  1
  Li  Li18  1  0.474797  0.247424  0.744515  1
  Li  Li19  1  0.530237  0.773419  0.767735  1
  Li  Li20  1  0.309983  0.495989  0.286340  1
  Li  Li21  1  0.378403  0.608185  0.586361  1
  Li  Li22  1  0.677235  0.655693  0.512869  1
  Li  Li23  1  0.849390  0.829502  0.514264  1
  Li  Li24  1  0.561879  0.195158  0.035507  1
  Li  Li25  1  0.846262  0.293870  -0.004467  1
  Li  Li26  1  0.311477  0.011760  0.774793  1
  Li  Li27  1  0.033412  0.030898  0.668781  1
  Ge  Ge28  1  0.003859  0.997839  0.981601  1
  Ge  Ge29  1  0.008140  0.496156  0.483529  1
  Ge  Ge30  1  0.506266  0.991326  0.483637  1
  Ge  Ge31  1  0.511864  0.490687  0.980222  1
  S  S32  1  0.101048  0.134619  0.112133  1
  S  S33  1  0.881431  0.869493  0.095752  1
  S  S34  1  0.885793  0.116825  0.839633  1
  S  S35  1  0.135625  0.880073  0.847981  1
  S  S36  1  0.134730  0.618178  0.608755  1
  S  S37  1  0.882219  0.368529  0.597508  1
  S  S38  1  0.876360  0.629541  0.371470  1
  S  S39  1  0.136028  0.370440  0.359820  1
  S  S40  1  0.617230  0.123594  0.607977  1
  S  S41  1  0.384849  0.859422  0.603398  1
  S  S42  1  0.379749  0.112469  0.355579  1
  S  S43  1  0.646831  0.859727  0.377913  1
  S  S44  1  0.624536  0.624596  0.097910  1
  S  S45  1  0.392713  0.360400  0.102401  1
  S  S46  1  0.387161  0.606721  0.841966  1
  S  S47  1  0.641714  0.350386  0.870283  1
  S  S48  1  0.244999  0.238504  0.744047  1
  S  S49  1  0.760473  0.743942  0.728140  1
  S  S50  1  0.013058  0.974671  0.436466  1
  S  S51  1  0.520132  0.499579  0.429751  1
  Br  Br52  1  0.744813  0.240946  0.229145  1
  Br  Br53  1  0.260032  0.746439  0.229933  1
  Br  Br54  1  0.505116  0.972551  0.939666  1
  Br  Br55  1  -0.000641  0.481858  0.930227  1
