# generated using pymatgen
data_Li7SiTe5I
_symmetry_space_group_name_H-M   'P 1'
_cell_length_a   11.54843480
_cell_length_b   11.54589291
_cell_length_c   11.67304868
_cell_angle_alpha   90.21807204
_cell_angle_beta   88.70374628
_cell_angle_gamma   87.61377852
_symmetry_Int_Tables_number   1
_chemical_formula_structural   Li7SiTe5I
_chemical_formula_sum   'Li28 Si4 Te20 I4'
_cell_volume   1554.68402360
_cell_formula_units_Z   4
loop_
 _symmetry_equiv_pos_site_id
 _symmetry_equiv_pos_as_xyz
  1  'x, y, z'
loop_
 _atom_site_type_symbol
 _atom_site_label
 _atom_site_symmetry_multiplicity
 _atom_site_fract_x
 _atom_site_fract_y
 _atom_site_fract_z
 _atom_site_occupancy
  Li  Li0  1  0.016512  0.299944  0.777250  1
  Li  Li1  1  0.979638  0.699356  0.799810  1
  Li  Li2  1  0.000028  0.186829  0.301307  1
  Li  Li3  1  0.011124  0.809931  0.275757  1
  Li  Li4  1  0.807672  0.005500  0.321829  1
  Li  Li5  1  0.700496  0.980656  0.786938  1
  Li  Li6  1  0.206827  0.999954  0.283902  1
  Li  Li7  1  0.326638  0.794935  0.998454  1
  Li  Li8  1  0.708280  0.784586  0.973868  1
  Li  Li9  1  0.194613  0.306966  0.973333  1
  Li  Li10  1  0.751647  0.504633  0.767401  1
  Li  Li11  1  0.715595  0.478723  0.302591  1
  Li  Li12  1  0.216160  0.487871  0.778245  1
  Li  Li13  1  0.320905  0.319031  0.516763  1
  Li  Li14  1  0.886076  0.120747  0.600590  1
  Li  Li15  1  0.195432  0.806307  0.489911  1
  Li  Li16  1  0.516263  0.286434  0.288981  1
  Li  Li17  1  0.522885  0.846878  0.183584  1
  Li  Li18  1  0.500331  0.287311  0.722163  1
  Li  Li19  1  0.519552  0.802820  0.803106  1
  Li  Li20  1  0.422087  0.569189  0.265048  1
  Li  Li21  1  0.070833  0.497949  0.191062  1
  Li  Li22  1  0.575646  0.703000  0.568766  1
  Li  Li23  1  0.868068  0.788442  0.525344  1
  Li  Li24  1  0.452413  0.203937  0.975389  1
  Li  Li25  1  0.723802  0.106371  0.032900  1
  Li  Li26  1  0.217755  0.078418  0.565955  1
  Li  Li27  1  0.317234  0.013932  0.824270  1
  Si  Si28  1  0.009707  0.995387  0.982620  1
  Si  Si29  1  0.007090  0.489711  0.489867  1
  Si  Si30  1  0.517497  0.994547  0.498765  1
  Si  Si31  1  0.505269  0.491150  0.993929  1
  Te  Te32  1  0.129749  0.125380  0.102430  1
  Te  Te33  1  0.864921  0.892890  0.110115  1
  Te  Te34  1  0.885471  0.116162  0.848075  1
  Te  Te35  1  0.140306  0.856832  0.870315  1
  Te  Te36  1  0.116281  0.625812  0.612604  1
  Te  Te37  1  0.869527  0.370394  0.604722  1
  Te  Te38  1  0.900765  0.612641  0.340687  1
  Te  Te39  1  0.141926  0.358685  0.370881  1
  Te  Te40  1  0.640972  0.126976  0.608126  1
  Te  Te41  1  0.379720  0.878234  0.622482  1
  Te  Te42  1  0.382782  0.118860  0.377333  1
  Te  Te43  1  0.644596  0.848480  0.386827  1
  Te  Te44  1  0.617474  0.618624  0.126773  1
  Te  Te45  1  0.363543  0.385111  0.123104  1
  Te  Te46  1  0.398010  0.611442  0.849193  1
  Te  Te47  1  0.639713  0.338410  0.901384  1
  Te  Te48  1  0.265562  0.246186  0.745981  1
  Te  Te49  1  0.747720  0.742271  0.737190  1
  Te  Te50  1  0.018983  0.982265  0.449050  1
  Te  Te51  1  0.514698  0.969322  0.976495  1
  I  I52  1  0.754263  0.236996  0.244401  1
  I  I53  1  0.262419  0.760748  0.241735  1
  I  I54  1  0.024259  0.485598  0.950637  1
  I  I55  1  0.512263  0.476017  0.465540  1
