# generated using pymatgen
data_Li7SnS5Cl
_symmetry_space_group_name_H-M   'P 1'
_cell_length_a   10.55917252
_cell_length_b   10.59558106
_cell_length_c   10.72859827
_cell_angle_alpha   90.89321829
_cell_angle_beta   89.53047884
_cell_angle_gamma   89.29180598
_symmetry_Int_Tables_number   1
_chemical_formula_structural   Li7SnS5Cl
_chemical_formula_sum   'Li28 Sn4 S20 Cl4'
_cell_volume   1200.04190747
_cell_formula_units_Z   4
loop_
 _symmetry_equiv_pos_site_id
 _symmetry_equiv_pos_as_xyz
  1  'x, y, z'
loop_
 _atom_site_type_symbol
 _atom_site_label
 _atom_site_symmetry_multiplicity
 _atom_site_fract_x
 _atom_site_fract_y
 _atom_site_fract_z
 _atom_site_occupancy
  Li  Li0  1  0.034048  0.286733  0.761179  1
  Li  Li1  1  0.983458  0.721303  0.765346  1
  Li  Li2  1  0.028813  0.193469  0.295529  1
  Li  Li3  1  0.023415  0.786612  0.278742  1
  Li  Li4  1  0.822262  0.984963  0.287218  1
  Li  Li5  1  0.708693  0.993511  0.777319  1
  Li  Li6  1  0.213856  0.984355  0.287912  1
  Li  Li7  1  0.258895  0.758547  0.982517  1
  Li  Li8  1  0.754193  0.759787  0.964956  1
  Li  Li9  1  0.213733  0.280560  0.976073  1
  Li  Li10  1  0.740703  0.519544  0.732463  1
  Li  Li11  1  0.687927  0.547377  0.303531  1
  Li  Li12  1  0.215429  0.477931  0.791468  1
  Li  Li13  1  0.233919  0.201237  0.519134  1
  Li  Li14  1  0.781336  0.229434  0.484998  1
  Li  Li15  1  0.182527  0.826219  0.546382  1
  Li  Li16  1  0.466934  0.321628  0.320862  1
  Li  Li17  1  0.490858  0.721574  0.271617  1
  Li  Li18  1  0.487277  0.272259  0.721281  1
  Li  Li19  1  0.521479  0.789450  0.792934  1
  Li  Li20  1  0.298351  0.511420  0.261231  1
  Li  Li21  1  0.306177  0.494710  0.526792  1
  Li  Li22  1  0.562232  0.705541  0.531817  1
  Li  Li23  1  0.836587  0.807909  0.509463  1
  Li  Li24  1  0.523795  0.197481  0.999189  1
  Li  Li25  1  0.849603  0.318628  0.952944  1
  Li  Li26  1  0.322615  0.018683  0.780606  1
  Li  Li27  1  0.017162  0.014311  0.673188  1
  Sn  Sn28  1  0.014218  0.999391  0.986534  1
  Sn  Sn29  1  0.005099  0.497649  0.491620  1
  Sn  Sn30  1  0.515484  0.001177  0.490147  1
  Sn  Sn31  1  0.509806  0.503541  0.992725  1
  S  S32  1  0.151343  0.118928  0.116770  1
  S  S33  1  0.892567  0.857623  0.107736  1
  S  S34  1  0.891247  0.122167  0.840532  1
  S  S35  1  0.137931  0.878938  0.831837  1
  S  S36  1  0.139515  0.620179  0.628471  1
  S  S37  1  0.876164  0.371093  0.622527  1
  S  S38  1  0.886009  0.632509  0.361695  1
  S  S39  1  0.160284  0.367785  0.380807  1
  S  S40  1  0.637528  0.137575  0.619114  1
  S  S41  1  0.394998  0.857631  0.616465  1
  S  S42  1  0.378234  0.119732  0.359852  1
  S  S43  1  0.652039  0.856183  0.375748  1
  S  S44  1  0.634596  0.645977  0.110371  1
  S  S45  1  0.386929  0.353416  0.109226  1
  S  S46  1  0.380461  0.620343  0.851436  1
  S  S47  1  0.641049  0.358195  0.869984  1
  S  S48  1  0.262384  0.246914  0.739743  1
  S  S49  1  0.753108  0.751861  0.735847  1
  S  S50  1  0.030266  0.966729  0.447198  1
  S  S51  1  0.487222  0.529538  0.408090  1
  Cl  Cl52  1  0.803802  0.211623  0.271507  1
  Cl  Cl53  1  0.255744  0.747714  0.210183  1
  Cl  Cl54  1  0.515407  0.991022  0.916600  1
  Cl  Cl55  1  0.040288  0.435173  0.936322  1
