# generated using pymatgen
data_Li7SiS5Cl
_symmetry_space_group_name_H-M   'P 1'
_cell_length_a   10.22929393
_cell_length_b   10.10433309
_cell_length_c   10.16576613
_cell_angle_alpha   92.71728931
_cell_angle_beta   89.58233627
_cell_angle_gamma   89.40356113
_symmetry_Int_Tables_number   1
_chemical_formula_structural   Li7SiS5Cl
_chemical_formula_sum   'Li28 Si4 S20 Cl4'
_cell_volume   1049.46538938
_cell_formula_units_Z   4
loop_
 _symmetry_equiv_pos_site_id
 _symmetry_equiv_pos_as_xyz
  1  'x, y, z'
loop_
 _atom_site_type_symbol
 _atom_site_label
 _atom_site_symmetry_multiplicity
 _atom_site_fract_x
 _atom_site_fract_y
 _atom_site_fract_z
 _atom_site_occupancy
  Li  Li0  1  0.008268  0.328722  0.798238  1
  Li  Li1  1  0.977245  0.708826  0.815340  1
  Li  Li2  1  0.006265  0.196025  0.294501  1
  Li  Li3  1  0.007568  0.818726  0.287827  1
  Li  Li4  1  0.804746  0.039320  0.447774  1
  Li  Li5  1  0.720982  0.995091  0.780290  1
  Li  Li6  1  0.211777  0.991328  0.287987  1
  Li  Li7  1  0.215906  0.712632  0.990166  1
  Li  Li8  1  0.728624  0.788085  0.965922  1
  Li  Li9  1  0.219899  0.310558  0.977900  1
  Li  Li10  1  0.736484  0.524993  0.713160  1
  Li  Li11  1  0.711028  0.514221  0.276684  1
  Li  Li12  1  0.250297  0.484155  0.739539  1
  Li  Li13  1  0.207892  0.195397  0.514231  1
  Li  Li14  1  0.704476  0.309852  0.477219  1
  Li  Li15  1  0.200921  0.827355  0.530251  1
  Li  Li16  1  0.411242  0.135824  0.117318  1
  Li  Li17  1  0.493061  0.814380  0.157161  1
  Li  Li18  1  0.475492  0.266894  0.726267  1
  Li  Li19  1  0.523776  0.802908  0.805708  1
  Li  Li20  1  0.390119  0.386982  0.341698  1
  Li  Li21  1  0.095620  0.534459  0.206799  1
  Li  Li22  1  0.601274  0.729499  0.535517  1
  Li  Li23  1  0.917369  0.778420  0.552653  1
  Li  Li24  1  0.688734  0.200575  0.983292  1
  Li  Li25  1  0.710192  0.001021  0.167771  1
  Li  Li26  1  0.334891  0.024444  0.815612  1
  Li  Li27  1  0.060987  0.061147  0.701490  1
  Si  Si28  1  0.021216  0.007953  0.985425  1
  Si  Si29  1  0.015156  0.498959  0.490451  1
  Si  Si30  1  0.514435  0.007161  0.481997  1
  Si  Si31  1  0.514797  0.501573  0.983747  1
  S  S32  1  0.146680  0.125920  0.109582  1
  S  S33  1  0.904684  0.877607  0.093268  1
  S  S34  1  0.898940  0.133016  0.872890  1
  S  S35  1  0.139029  0.888707  0.850088  1
  S  S36  1  0.113291  0.633802  0.621785  1
  S  S37  1  0.892499  0.376607  0.599615  1
  S  S38  1  0.909171  0.616186  0.355319  1
  S  S39  1  0.147950  0.377943  0.373005  1
  S  S40  1  0.637415  0.130318  0.602735  1
  S  S41  1  0.410574  0.881993  0.609556  1
  S  S42  1  0.390063  0.125408  0.366242  1
  S  S43  1  0.637795  0.882198  0.357758  1
  S  S44  1  0.633273  0.629843  0.101629  1
  S  S45  1  0.402947  0.377064  0.106027  1
  S  S46  1  0.393563  0.620803  0.865629  1
  S  S47  1  0.633642  0.379395  0.854980  1
  S  S48  1  0.240655  0.242388  0.744956  1
  S  S49  1  0.755727  0.759283  0.727468  1
  S  S50  1  0.037264  0.990821  0.464200  1
  S  S51  1  0.551961  0.990187  0.981703  1
  Cl  Cl52  1  0.774499  0.222483  0.259638  1
  Cl  Cl53  1  0.242896  0.758647  0.224705  1
  Cl  Cl54  1  0.062058  0.512859  0.970243  1
  Cl  Cl55  1  0.562686  0.494821  0.462823  1
