# generated using pymatgen
data_Li21P4S17Cl7
_symmetry_space_group_name_H-M   'P 1'
_cell_length_a   10.03219902
_cell_length_b   9.84032499
_cell_length_c   9.91731548
_cell_angle_alpha   88.72061162
_cell_angle_beta   90.24909542
_cell_angle_gamma   88.36709937
_symmetry_Int_Tables_number   1
_chemical_formula_structural   Li21P4S17Cl7
_chemical_formula_sum   'Li21 P4 S17 Cl7'
_cell_volume   978.38465663
_cell_formula_units_Z   1
loop_
 _symmetry_equiv_pos_site_id
 _symmetry_equiv_pos_as_xyz
  1  'x, y, z'
loop_
 _atom_site_type_symbol
 _atom_site_label
 _atom_site_symmetry_multiplicity
 _atom_site_fract_x
 _atom_site_fract_y
 _atom_site_fract_z
 _atom_site_occupancy
  Cl  Cl0  1  0.240304  0.258877  0.721602  1
  Cl  Cl1  1  0.771178  0.742460  0.748517  1
  Cl  Cl2  1  0.269045  0.749639  0.238126  1
  Cl  Cl3  1  0.505043  0.495346  0.461315  1
  Cl  Cl4  1  0.972733  0.004503  0.467702  1
  Cl  Cl5  1  0.997761  0.514866  0.968638  1
  Cl  Cl6  1  0.501679  0.016638  0.964156  1
  Li  Li7  1  0.029379  0.303008  0.831297  1
  Li  Li8  1  0.527019  0.278812  0.306159  1
  Li  Li9  1  0.003307  0.680188  0.773771  1
  Li  Li10  1  0.467500  0.726374  0.389716  1
  Li  Li11  1  0.975422  0.303337  0.176622  1
  Li  Li12  1  0.455394  0.202091  0.804378  1
  Li  Li13  1  0.057085  0.806032  0.339175  1
  Li  Li14  1  0.369896  0.866623  0.842498  1
  Li  Li15  1  0.816340  0.027756  0.265625  1
  Li  Li16  1  0.680071  0.525794  0.662121  1
  Li  Li17  1  0.688872  0.968269  0.807183  1
  Li  Li18  1  0.705107  0.492450  0.280849  1
  Li  Li19  1  0.338973  0.997158  0.163039  1
  Li  Li20  1  0.307616  0.483051  0.680807  1
  Li  Li21  1  0.300797  0.506378  0.299345  1
  Li  Li22  1  0.164984  0.684791  0.024987  1
  Li  Li23  1  0.168071  0.165491  0.511741  1
  Li  Li24  1  0.810015  0.670044  0.993618  1
  Li  Li25  1  0.809851  0.207659  0.483057  1
  Li  Li26  1  0.694212  0.221512  0.027874  1
  Li  Li27  1  0.812050  0.828917  0.521371  1
  P  P28  1  0.011132  0.993357  0.989055  1
  P  P29  1  0.002302  0.503415  0.488568  1
  P  P30  1  0.508631  0.995842  0.496402  1
  P  P31  1  0.490324  0.505233  0.995516  1
  S  S32  1  0.131043  0.124159  0.084757  1
  S  S33  1  0.133391  0.630165  0.577077  1
  S  S34  1  0.614494  0.121473  0.618111  1
  S  S35  1  0.602267  0.635192  0.103872  1
  S  S36  1  0.920040  0.858244  0.119399  1
  S  S37  1  0.893316  0.391078  0.624458  1
  S  S38  1  0.420374  0.845994  0.603443  1
  S  S39  1  0.390740  0.372502  0.116634  1
  S  S40  1  0.870022  0.111882  0.884838  1
  S  S41  1  0.874338  0.631140  0.379488  1
  S  S42  1  0.371016  0.109424  0.382079  1
  S  S43  1  0.353244  0.616827  0.879490  1
  S  S44  1  0.120382  0.878152  0.856150  1
  S  S45  1  0.109700  0.374475  0.366529  1
  S  S46  1  0.633300  0.898787  0.361900  1
  S  S47  1  0.603970  0.391392  0.861795  1
  S  S48  1  0.756269  0.260093  0.251368  1
