# generated using pymatgen
data_Li6PSe5Br
_symmetry_space_group_name_H-M   'P 1'
_cell_length_a   10.81546125
_cell_length_b   10.81546125
_cell_length_c   10.81546125
_cell_angle_alpha   88.57250961
_cell_angle_beta   91.42749039
_cell_angle_gamma   88.57250961
_symmetry_Int_Tables_number   1
_chemical_formula_structural   Li6PSe5Br
_chemical_formula_sum   'Li24 P4 Se20 Br4'
_cell_volume   1263.93211605
_cell_formula_units_Z   4
loop_
 _symmetry_equiv_pos_site_id
 _symmetry_equiv_pos_as_xyz
  1  'x, y, z'
loop_
 _atom_site_type_symbol
 _atom_site_label
 _atom_site_symmetry_multiplicity
 _atom_site_fract_x
 _atom_site_fract_y
 _atom_site_fract_z
 _atom_site_occupancy
  Br  Br0  1  0.016312  0.117925  0.516312  1
  Br  Br1  1  0.382075  0.483688  0.516312  1
  Br  Br2  1  0.016312  0.483688  -0.117925  1
  Br  Br3  1  0.257619  0.242381  0.757619  1
  Li  Li4  1  0.002669  0.271564  0.728436  1
  Li  Li5  1  0.522244  0.220152  0.224068  1
  Li  Li6  1  0.978918  0.705847  0.794593  1
  Li  Li7  1  0.489137  0.770239  0.229761  1
  Li  Li8  1  0.978918  0.205407  0.294153  1
  Li  Li9  1  0.496919  0.188905  0.811095  1
  Li  Li10  1  0.041331  0.746230  0.253770  1
  Li  Li11  1  0.522244  0.775932  0.779848  1
  Li  Li12  1  0.729761  0.010863  0.229761  1
  Li  Li13  1  0.794153  0.521082  0.794593  1
  Li  Li14  1  0.724068  0.977756  0.779848  1
  Li  Li15  1  0.753770  0.458669  0.253770  1
  Li  Li16  1  0.279848  0.977756  0.224068  1
  Li  Li17  1  0.228436  0.497331  0.728436  1
  Li  Li18  1  0.311095  0.003081  0.811095  1
  Li  Li19  1  0.294593  0.521082  0.294153  1
  Li  Li20  1  0.279848  0.775932  0.022244  1
  Li  Li21  1  0.228436  0.271564  0.502669  1
  Li  Li22  1  0.729761  0.770239  0.989137  1
  Li  Li23  1  0.794153  0.205407  0.478918  1
  Li  Li24  1  0.311095  0.188905  -0.003081  1
  Li  Li25  1  0.294593  0.705847  0.478918  1
  Li  Li26  1  0.724068  0.220152  0.022244  1
  Li  Li27  1  0.753770  0.746230  0.541331  1
  P  P28  1  0.003050  0.003758  -0.003758  1
  P  P29  1  -0.025447  0.525447  0.474553  1
  P  P30  1  0.496242  0.003758  0.503050  1
  P  P31  1  0.496242  0.496950  -0.003758  1
  Se  Se32  1  0.482930  0.017070  -0.017070  1
  Se  Se33  1  0.748513  0.751487  0.767242  1
  Se  Se34  1  0.748513  0.232758  0.248513  1
  Se  Se35  1  0.267242  0.751487  0.248513  1
  Se  Se36  1  0.118194  0.123085  0.115061  1
  Se  Se37  1  0.084780  0.656472  0.584780  1
  Se  Se38  1  0.615061  0.123085  0.618194  1
  Se  Se39  1  0.618915  0.607603  0.118915  1
  Se  Se40  1  0.892397  0.881085  0.118915  1
  Se  Se41  1  0.843528  0.415220  0.584780  1
  Se  Se42  1  0.376915  0.884939  0.618194  1
  Se  Se43  1  0.376915  0.381806  0.115061  1
  Se  Se44  1  0.877796  0.123594  0.876406  1
  Se  Se45  1  0.852305  0.647695  0.352305  1
  Se  Se46  1  0.376406  0.123594  0.377796  1
  Se  Se47  1  0.376406  0.622204  0.876406  1
  Se  Se48  1  0.118194  0.884939  0.876915  1
  Se  Se49  1  0.084780  0.415220  0.343528  1
  Se  Se50  1  0.618915  0.881085  0.392397  1
  Se  Se51  1  0.615061  0.381806  0.876915  1
