# generated using pymatgen
data_Li7SbS6
_symmetry_space_group_name_H-M   'P 1'
_cell_length_a   10.42030148
_cell_length_b   10.42667445
_cell_length_c   10.42667445
_cell_angle_alpha   91.33304278
_cell_angle_beta   88.19600938
_cell_angle_gamma   88.19600938
_symmetry_Int_Tables_number   1
_chemical_formula_structural   Li7SbS6
_chemical_formula_sum   'Li28 Sb4 S24'
_cell_volume   1131.39242737
_cell_formula_units_Z   4
loop_
 _symmetry_equiv_pos_site_id
 _symmetry_equiv_pos_as_xyz
  1  'x, y, z'
loop_
 _atom_site_type_symbol
 _atom_site_label
 _atom_site_symmetry_multiplicity
 _atom_site_fract_x
 _atom_site_fract_y
 _atom_site_fract_z
 _atom_site_occupancy
  Li  Li0  1  0.026008  0.293699  0.799070  1
  Li  Li1  1  -0.009137  0.789595  0.695207  1
  Li  Li2  1  -0.009137  0.289595  0.195207  1
  Li  Li3  1  0.026008  0.793699  0.299070  1
  Li  Li4  1  0.795799  0.033512  0.274354  1
  Li  Li5  1  0.712372  0.988157  0.767098  1
  Li  Li6  1  0.195395  0.979563  0.329081  1
  Li  Li7  1  0.295799  0.774354  0.033512  1
  Li  Li8  1  0.695395  0.829081  0.979563  1
  Li  Li9  1  0.212372  0.267098  0.988157  1
  Li  Li10  1  0.795799  0.533512  0.774354  1
  Li  Li11  1  0.712372  0.488157  0.267098  1
  Li  Li12  1  0.195395  0.479563  0.829081  1
  Li  Li13  1  0.295799  0.274354  0.533512  1
  Li  Li14  1  0.695395  0.329081  0.479563  1
  Li  Li15  1  0.212372  0.767098  0.488157  1
  Li  Li16  1  0.526008  0.299070  0.293699  1
  Li  Li17  1  0.490863  0.695207  0.289595  1
  Li  Li18  1  0.490863  0.195207  0.789595  1
  Li  Li19  1  0.526008  0.799070  0.793699  1
  Li  Li20  1  0.328758  0.501433  0.313530  1
  Li  Li21  1  0.091922  0.555507  0.168483  1
  Li  Li22  1  0.591922  0.668483  0.555507  1
  Li  Li23  1  0.828758  0.813530  0.501433  1
  Li  Li24  1  0.591922  0.168483  0.055507  1
  Li  Li25  1  0.828758  0.313530  0.001433  1
  Li  Li26  1  0.328758  0.001433  0.813530  1
  Li  Li27  1  0.091922  0.055507  0.668483  1
  Sb  Sb28  1  0.013477  -0.011339  -0.004462  1
  Sb  Sb29  1  0.013477  0.488661  0.495538  1
  Sb  Sb30  1  0.513477  -0.004462  0.488661  1
  Sb  Sb31  1  0.513477  0.495538  -0.011339  1
  S  S32  1  0.137732  0.104195  0.137467  1
  S  S33  1  0.877403  0.864201  0.120399  1
  S  S34  1  0.897509  0.110643  0.847028  1
  S  S35  1  0.151261  0.858272  0.861990  1
  S  S36  1  0.137732  0.604195  0.637467  1
  S  S37  1  0.877403  0.364201  0.620399  1
  S  S38  1  0.897509  0.610643  0.347028  1
  S  S39  1  0.151261  0.358272  0.361990  1
  S  S40  1  0.637732  0.137467  0.604195  1
  S  S41  1  0.397509  0.847028  0.610643  1
  S  S42  1  0.377403  0.120399  0.364201  1
  S  S43  1  0.651261  0.861990  0.358272  1
  S  S44  1  0.637732  0.637467  0.104195  1
  S  S45  1  0.397509  0.347028  0.110643  1
  S  S46  1  0.377403  0.620399  0.864201  1
  S  S47  1  0.651261  0.361990  0.858272  1
  S  S48  1  0.251044  0.218909  0.752262  1
  S  S49  1  0.751044  0.752262  0.718909  1
  S  S50  1  0.751044  0.252262  0.218909  1
  S  S51  1  0.251044  0.718909  0.252262  1
  S  S52  1  0.030457  -0.077102  0.492135  1
  S  S53  1  0.530457  -0.007865  -0.077102  1
  S  S54  1  0.030457  0.422898  -0.007865  1
  S  S55  1  0.530457  0.492135  0.422898  1
