# generated using pymatgen
data_Li7SnS5I
_symmetry_space_group_name_H-M   'P 1'
_cell_length_a   10.69369656
_cell_length_b   10.56340696
_cell_length_c   10.56340696
_cell_angle_alpha   89.32427633
_cell_angle_beta   90.18890487
_cell_angle_gamma   90.18890487
_symmetry_Int_Tables_number   1
_chemical_formula_structural   Li7SnS5I
_chemical_formula_sum   'Li28 Sn4 S20 I4'
_cell_volume   1193.16638606
_cell_formula_units_Z   4
loop_
 _symmetry_equiv_pos_site_id
 _symmetry_equiv_pos_as_xyz
  1  'x, y, z'
loop_
 _atom_site_type_symbol
 _atom_site_label
 _atom_site_symmetry_multiplicity
 _atom_site_fract_x
 _atom_site_fract_y
 _atom_site_fract_z
 _atom_site_occupancy
  Li  Li0  1  0.028143  0.314990  0.780033  1
  Li  Li1  1  0.988791  0.723206  0.766988  1
  Li  Li2  1  0.988791  0.223206  0.266988  1
  Li  Li3  1  0.028143  0.814990  0.280033  1
  Li  Li4  1  0.744460  0.007528  0.236317  1
  Li  Li5  1  0.757266  0.981176  0.753532  1
  Li  Li6  1  0.282916  0.976299  0.217217  1
  Li  Li7  1  0.244460  0.736317  0.007528  1
  Li  Li8  1  0.782916  0.717217  0.976299  1
  Li  Li9  1  0.257266  0.253532  0.981176  1
  Li  Li10  1  0.744460  0.507528  0.736317  1
  Li  Li11  1  0.757266  0.481176  0.253532  1
  Li  Li12  1  0.282916  0.476299  0.717217  1
  Li  Li13  1  0.244460  0.236317  0.507528  1
  Li  Li14  1  0.782916  0.217217  0.476299  1
  Li  Li15  1  0.257266  0.753532  0.481176  1
  Li  Li16  1  0.528143  0.280033  0.314990  1
  Li  Li17  1  0.488791  0.766988  0.223206  1
  Li  Li18  1  0.488791  0.266988  0.723206  1
  Li  Li19  1  0.528143  0.780033  0.814990  1
  Li  Li20  1  0.320774  0.504729  0.293149  1
  Li  Li21  1  0.076217  0.565263  0.218897  1
  Li  Li22  1  0.576217  0.718897  0.565263  1
  Li  Li23  1  0.820774  0.793149  0.504729  1
  Li  Li24  1  0.576217  0.218897  0.065263  1
  Li  Li25  1  0.820774  0.293149  0.004729  1
  Li  Li26  1  0.320774  0.004729  0.793149  1
  Li  Li27  1  0.076217  0.065263  0.718897  1
  Sn  Sn28  1  0.010728  0.001487  0.997346  1
  Sn  Sn29  1  0.010728  0.501487  0.497346  1
  Sn  Sn30  1  0.510728  0.997346  0.501487  1
  Sn  Sn31  1  0.510728  0.497346  0.001487  1
  S  S32  1  0.139105  0.129005  0.129601  1
  S  S33  1  0.876029  0.867717  0.118316  1
  S  S34  1  0.896837  0.135711  0.851122  1
  S  S35  1  0.136140  0.877965  0.853632  1
  S  S36  1  0.139105  0.629005  0.629601  1
  S  S37  1  0.876029  0.367717  0.618316  1
  S  S38  1  0.896837  0.635711  0.351122  1
  S  S39  1  0.136140  0.377965  0.353632  1
  S  S40  1  0.639105  0.129601  0.629005  1
  S  S41  1  0.396837  0.851122  0.635711  1
  S  S42  1  0.376029  0.118316  0.367717  1
  S  S43  1  0.636140  0.853632  0.377965  1
  S  S44  1  0.639105  0.629601  0.129005  1
  S  S45  1  0.396837  0.351122  0.135711  1
  S  S46  1  0.376029  0.618316  0.867717  1
  S  S47  1  0.636140  0.353632  0.877965  1
  S  S48  1  0.250582  0.235771  0.744502  1
  S  S49  1  0.750582  0.744502  0.735771  1
  S  S50  1  0.750582  0.244502  0.235771  1
  S  S51  1  0.250582  0.735771  0.244502  1
  I  I52  1  -0.007988  0.006562  0.474828  1
  I  I53  1  0.492012  0.974828  0.006562  1
  I  I54  1  -0.007988  0.506562  0.974828  1
  I  I55  1  0.492012  0.474828  0.506562  1
