# generated using pymatgen
data_Li7GeTe5I
_symmetry_space_group_name_H-M   'P 1'
_cell_length_a   11.76700601
_cell_length_b   11.42170589
_cell_length_c   11.60329894
_cell_angle_alpha   92.11174899
_cell_angle_beta   91.10917570
_cell_angle_gamma   88.57195727
_symmetry_Int_Tables_number   1
_chemical_formula_structural   Li7GeTe5I
_chemical_formula_sum   'Li28 Ge4 Te20 I4'
_cell_volume   1557.66651617
_cell_formula_units_Z   4
loop_
 _symmetry_equiv_pos_site_id
 _symmetry_equiv_pos_as_xyz
  1  'x, y, z'
loop_
 _atom_site_type_symbol
 _atom_site_label
 _atom_site_symmetry_multiplicity
 _atom_site_fract_x
 _atom_site_fract_y
 _atom_site_fract_z
 _atom_site_occupancy
  Li  Li0  1  0.017733  0.289957  0.778657  1
  Li  Li1  1  0.973938  0.697476  0.816201  1
  Li  Li2  1  0.015911  0.204860  0.436568  1
  Li  Li3  1  0.001140  0.796120  0.278414  1
  Li  Li4  1  0.823455  0.002648  0.287270  1
  Li  Li5  1  0.688357  0.983165  0.811439  1
  Li  Li6  1  0.181590  0.001225  0.281057  1
  Li  Li7  1  0.339316  0.758992  0.007189  1
  Li  Li8  1  0.739227  0.703207  0.966397  1
  Li  Li9  1  0.257777  0.182666  0.962320  1
  Li  Li10  1  0.687845  0.491553  0.678588  1
  Li  Li11  1  0.662186  0.588972  0.320514  1
  Li  Li12  1  0.200446  0.470429  0.779078  1
  Li  Li13  1  0.345033  0.322571  0.520115  1
  Li  Li14  1  0.692773  0.298817  0.465168  1
  Li  Li15  1  0.197732  0.783154  0.475290  1
  Li  Li16  1  0.504691  0.303364  0.293292  1
  Li  Li17  1  0.572012  0.704080  0.548642  1
  Li  Li18  1  0.475786  0.200804  0.782629  1
  Li  Li19  1  0.512469  0.795421  0.792219  1
  Li  Li20  1  0.403193  0.549809  0.270980  1
  Li  Li21  1  0.090334  0.512546  0.181717  1
  Li  Li22  1  0.806899  0.964127  0.590852  1
  Li  Li23  1  0.895970  0.733885  0.528967  1
  Li  Li24  1  0.569283  0.211472  0.048168  1
  Li  Li25  1  0.871973  0.276399  0.017863  1
  Li  Li26  1  0.257861  0.060658  0.545808  1
  Li  Li27  1  0.088747  0.025072  0.717830  1
  Ge  Ge28  1  0.004935  0.981687  0.986273  1
  Ge  Ge29  1  0.011301  0.484178  0.476585  1
  Ge  Ge30  1  0.517928  0.981086  0.476455  1
  Ge  Ge31  1  0.502279  0.492642  0.977421  1
  Te  Te32  1  0.083746  0.148331  0.122576  1
  Te  Te33  1  0.863203  0.857802  0.097840  1
  Te  Te34  1  0.887397  0.101035  0.829876  1
  Te  Te35  1  0.153771  0.853184  0.872896  1
  Te  Te36  1  0.103188  0.633467  0.623246  1
  Te  Te37  1  0.883938  0.344468  0.589641  1
  Te  Te38  1  0.895096  0.593311  0.314898  1
  Te  Te39  1  0.166301  0.366889  0.359097  1
  Te  Te40  1  0.628645  0.125062  0.615209  1
  Te  Te41  1  0.385472  0.854685  0.598008  1
  Te  Te42  1  0.379955  0.111714  0.352304  1
  Te  Te43  1  0.677558  0.844880  0.383778  1
  Te  Te44  1  0.565688  0.664290  0.117152  1
  Te  Te45  1  0.374301  0.358658  0.098627  1
  Te  Te46  1  0.386227  0.601189  0.819804  1
  Te  Te47  1  0.657531  0.353999  0.880901  1
  Te  Te48  1  0.241004  0.229768  0.724263  1
  Te  Te49  1  0.742993  0.745150  0.730912  1
  Te  Te50  1  0.025119  0.966853  0.468875  1
  Te  Te51  1  0.528383  0.474996  0.469444  1
  I  I52  1  0.730252  0.222695  0.231794  1
  I  I53  1  0.228260  0.734694  0.232224  1
  I  I54  1  0.491465  0.005281  0.943791  1
  I  I55  1  0.010388  0.480336  0.948661  1
