# generated using pymatgen
data_Li7SiS5Cl
_symmetry_space_group_name_H-M   'P 1'
_cell_length_a   10.27897635
_cell_length_b   10.19431718
_cell_length_c   10.19431718
_cell_angle_alpha   91.48939848
_cell_angle_beta   89.58603011
_cell_angle_gamma   89.58603011
_symmetry_Int_Tables_number   1
_chemical_formula_structural   Li7SiS5Cl
_chemical_formula_sum   'Li28 Si4 S20 Cl4'
_cell_volume   1067.81526088
_cell_formula_units_Z   4
loop_
 _symmetry_equiv_pos_site_id
 _symmetry_equiv_pos_as_xyz
  1  'x, y, z'
loop_
 _atom_site_type_symbol
 _atom_site_label
 _atom_site_symmetry_multiplicity
 _atom_site_fract_x
 _atom_site_fract_y
 _atom_site_fract_z
 _atom_site_occupancy
  Li  Li0  1  0.024453  0.311927  0.788756  1
  Li  Li1  1  0.985479  0.737433  0.752304  1
  Li  Li2  1  0.985479  0.237433  0.252304  1
  Li  Li3  1  0.024453  0.811927  0.288756  1
  Li  Li4  1  0.743240  0.012940  0.227477  1
  Li  Li5  1  0.721447  0.989943  0.786777  1
  Li  Li6  1  0.265830  0.969128  0.238677  1
  Li  Li7  1  0.243240  0.727477  0.012940  1
  Li  Li8  1  0.765830  0.738677  0.969128  1
  Li  Li9  1  0.221447  0.286777  0.989943  1
  Li  Li10  1  0.743240  0.512940  0.727477  1
  Li  Li11  1  0.721447  0.489943  0.286777  1
  Li  Li12  1  0.265830  0.469128  0.738677  1
  Li  Li13  1  0.243240  0.227477  0.512940  1
  Li  Li14  1  0.765830  0.238677  0.469128  1
  Li  Li15  1  0.221447  0.786777  0.489943  1
  Li  Li16  1  0.524453  0.288756  0.311927  1
  Li  Li17  1  0.485479  0.752304  0.237433  1
  Li  Li18  1  0.485479  0.252304  0.737433  1
  Li  Li19  1  0.524453  0.788756  0.811927  1
  Li  Li20  1  0.329808  0.512325  0.312109  1
  Li  Li21  1  0.073794  0.547588  0.207911  1
  Li  Li22  1  0.573794  0.707911  0.547588  1
  Li  Li23  1  0.829808  0.812109  0.512325  1
  Li  Li24  1  0.573794  0.207911  0.047588  1
  Li  Li25  1  0.829808  0.312109  0.012325  1
  Li  Li26  1  0.329808  0.012325  0.812109  1
  Li  Li27  1  0.073794  0.047588  0.707911  1
  Si  Si28  1  0.014627  0.998673  0.994343  1
  Si  Si29  1  0.014627  0.498673  0.494343  1
  Si  Si30  1  0.514627  0.994343  0.498673  1
  Si  Si31  1  0.514627  0.494343  0.998673  1
  S  S32  1  0.133705  0.113436  0.120213  1
  S  S33  1  0.892994  0.875353  0.106404  1
  S  S34  1  0.902452  0.120426  0.867973  1
  S  S35  1  0.136452  0.878944  0.866616  1
  S  S36  1  0.133705  0.613436  0.620213  1
  S  S37  1  0.892994  0.375353  0.606404  1
  S  S38  1  0.902452  0.620426  0.367973  1
  S  S39  1  0.136452  0.378944  0.366616  1
  S  S40  1  0.633705  0.120213  0.613436  1
  S  S41  1  0.402452  0.867973  0.620426  1
  S  S42  1  0.392994  0.106404  0.375353  1
  S  S43  1  0.636452  0.866616  0.378944  1
  S  S44  1  0.633705  0.620213  0.113436  1
  S  S45  1  0.402452  0.367973  0.120426  1
  S  S46  1  0.392994  0.606404  0.875353  1
  S  S47  1  0.636452  0.366616  0.878944  1
  S  S48  1  0.249561  0.232861  0.748700  1
  S  S49  1  0.749561  0.748700  0.732861  1
  S  S50  1  0.749561  0.248700  0.232861  1
  S  S51  1  0.249561  0.732861  0.248700  1
  Cl  Cl52  1  0.026157  0.951063  0.492590  1
  Cl  Cl53  1  0.526157  0.992590  0.951063  1
  Cl  Cl54  1  0.026157  0.451063  0.992590  1
  Cl  Cl55  1  0.526157  0.492590  0.451063  1
