# generated using pymatgen
data_Li7SiS5Br
_symmetry_space_group_name_H-M   'P 1'
_cell_length_a   10.10188458
_cell_length_b   10.13838836
_cell_length_c   10.46176166
_cell_angle_alpha   90.33376460
_cell_angle_beta   90.21869017
_cell_angle_gamma   88.55499640
_symmetry_Int_Tables_number   1
_chemical_formula_structural   Li7SiS5Br
_chemical_formula_sum   'Li28 Si4 S20 Br4'
_cell_volume   1071.09433028
_cell_formula_units_Z   4
loop_
 _symmetry_equiv_pos_site_id
 _symmetry_equiv_pos_as_xyz
  1  'x, y, z'
loop_
 _atom_site_type_symbol
 _atom_site_label
 _atom_site_symmetry_multiplicity
 _atom_site_fract_x
 _atom_site_fract_y
 _atom_site_fract_z
 _atom_site_occupancy
  Li  Li0  1  0.013697  0.293931  0.764814  1
  Li  Li1  1  0.992348  0.719158  0.785121  1
  Li  Li2  1  0.951147  0.225508  0.424618  1
  Li  Li3  1  0.002187  0.685925  0.176330  1
  Li  Li4  1  0.839604  0.986606  0.284997  1
  Li  Li5  1  0.709600  0.988200  0.756238  1
  Li  Li6  1  0.177790  0.011117  0.278506  1
  Li  Li7  1  0.324800  0.793697  0.990839  1
  Li  Li8  1  0.718259  0.782161  0.957772  1
  Li  Li9  1  0.248637  0.243091  0.965096  1
  Li  Li10  1  0.787510  0.517506  0.776526  1
  Li  Li11  1  0.708581  0.502934  0.275845  1
  Li  Li12  1  0.210536  0.485148  0.795427  1
  Li  Li13  1  0.218754  0.172176  0.506672  1
  Li  Li14  1  0.661140  0.344911  0.521628  1
  Li  Li15  1  0.184101  0.818562  0.491843  1
  Li  Li16  1  0.498927  0.297217  0.300856  1
  Li  Li17  1  0.505596  0.711569  0.289435  1
  Li  Li18  1  0.482925  0.259263  0.743298  1
  Li  Li19  1  0.522523  0.751110  0.737355  1
  Li  Li20  1  0.309865  0.497101  0.270205  1
  Li  Li21  1  0.307360  0.457675  0.540934  1
  Li  Li22  1  0.671451  0.665460  0.509041  1
  Li  Li23  1  0.856412  0.841078  0.516134  1
  Li  Li24  1  0.579884  0.203899  0.037033  1
  Li  Li25  1  0.899459  0.274991  0.029859  1
  Li  Li26  1  0.323593  0.017766  0.766419  1
  Li  Li27  1  0.041955  0.026129  0.690920  1
  Si  Si28  1  0.008266  0.000059  0.977933  1
  Si  Si29  1  0.008881  0.507254  0.489753  1
  Si  Si30  1  0.508496  0.999077  0.479750  1
  Si  Si31  1  0.514859  0.495250  0.984553  1
  S  S32  1  0.097831  0.138856  0.100533  1
  S  S33  1  0.889409  0.871988  0.086147  1
  S  S34  1  0.886350  0.115022  0.848811  1
  S  S35  1  0.143291  0.887518  0.859522  1
  S  S36  1  0.131601  0.620468  0.613128  1
  S  S37  1  0.880440  0.383124  0.596193  1
  S  S38  1  0.887806  0.632447  0.372583  1
  S  S39  1  0.136487  0.377854  0.381723  1
  S  S40  1  0.616365  0.131649  0.598209  1
  S  S41  1  0.388331  0.875183  0.593240  1
  S  S42  1  0.384366  0.105151  0.349645  1
  S  S43  1  0.650284  0.874446  0.381093  1
  S  S44  1  0.622742  0.627551  0.100213  1
  S  S45  1  0.398841  0.362976  0.096790  1
  S  S46  1  0.391218  0.608875  0.859757  1
  S  S47  1  0.643626  0.364677  0.879040  1
  S  S48  1  0.247173  0.251163  0.731642  1
  S  S49  1  0.759920  0.750165  0.723463  1
  S  S50  1  0.025584  0.003498  0.463122  1
  S  S51  1  0.513173  0.501286  0.425168  1
  Br  Br52  1  0.754078  0.245209  0.238418  1
  Br  Br53  1  0.248475  0.746088  0.229247  1
  Br  Br54  1  0.511248  0.980233  0.940396  1
  Br  Br55  1  0.002217  0.494825  0.941951  1
