# generated using pymatgen
data_Li7SiS5I
_symmetry_space_group_name_H-M   'P 1'
_cell_length_a   10.43942001
_cell_length_b   10.32372354
_cell_length_c   10.32372354
_cell_angle_alpha   90.05660438
_cell_angle_beta   90.09507674
_cell_angle_gamma   90.09507674
_symmetry_Int_Tables_number   1
_chemical_formula_structural   Li7SiS5I
_chemical_formula_sum   'Li28 Si4 S20 I4'
_cell_volume   1112.62213128
_cell_formula_units_Z   4
loop_
 _symmetry_equiv_pos_site_id
 _symmetry_equiv_pos_as_xyz
  1  'x, y, z'
loop_
 _atom_site_type_symbol
 _atom_site_label
 _atom_site_symmetry_multiplicity
 _atom_site_fract_x
 _atom_site_fract_y
 _atom_site_fract_z
 _atom_site_occupancy
  Li  Li0  1  0.018194  0.293492  0.781894  1
  Li  Li1  1  0.024934  0.680442  0.838094  1
  Li  Li2  1  0.024934  0.180442  0.338094  1
  Li  Li3  1  0.018194  0.793492  0.281894  1
  Li  Li4  1  0.822626  0.979756  0.290450  1
  Li  Li5  1  0.685742  0.027903  0.818209  1
  Li  Li6  1  0.210543  0.995072  0.297173  1
  Li  Li7  1  0.322626  0.790450  0.979756  1
  Li  Li8  1  0.710543  0.797173  0.995072  1
  Li  Li9  1  0.185742  0.318209  0.027903  1
  Li  Li10  1  0.822626  0.479756  0.790450  1
  Li  Li11  1  0.685742  0.527903  0.318209  1
  Li  Li12  1  0.210543  0.495072  0.797173  1
  Li  Li13  1  0.322626  0.290450  0.479756  1
  Li  Li14  1  0.710543  0.297173  0.495072  1
  Li  Li15  1  0.185742  0.818209  0.527903  1
  Li  Li16  1  0.518194  0.281894  0.293492  1
  Li  Li17  1  0.524934  0.838094  0.180442  1
  Li  Li18  1  0.524934  0.338094  0.680442  1
  Li  Li19  1  0.518194  0.781894  0.793492  1
  Li  Li20  1  0.347946  0.490564  0.302403  1
  Li  Li21  1  0.012370  0.502515  0.180645  1
  Li  Li22  1  0.512370  0.680645  0.502515  1
  Li  Li23  1  0.847946  0.802403  0.490564  1
  Li  Li24  1  0.512370  0.180645  0.002515  1
  Li  Li25  1  0.847946  0.302403  0.990564  1
  Li  Li26  1  0.347946  0.990564  0.802403  1
  Li  Li27  1  0.012370  0.002515  0.680645  1
  Si  Si28  1  0.018146  0.995029  0.991816  1
  Si  Si29  1  0.018146  0.495029  0.491816  1
  Si  Si30  1  0.518146  0.991816  0.495029  1
  Si  Si31  1  0.518146  0.491816  0.995029  1
  S  S32  1  0.125992  0.115126  0.117953  1
  S  S33  1  0.901487  0.863876  0.098450  1
  S  S34  1  0.901148  0.108717  0.861726  1
  S  S35  1  0.139414  0.885988  0.860263  1
  S  S36  1  0.125992  0.615126  0.617953  1
  S  S37  1  0.901487  0.363876  0.598450  1
  S  S38  1  0.901148  0.608717  0.361726  1
  S  S39  1  0.139414  0.385988  0.360263  1
  S  S40  1  0.625992  0.117953  0.615126  1
  S  S41  1  0.401148  0.861726  0.608717  1
  S  S42  1  0.401487  0.098450  0.363876  1
  S  S43  1  0.639414  0.860263  0.385988  1
  S  S44  1  0.625992  0.617953  0.115126  1
  S  S45  1  0.401148  0.361726  0.108717  1
  S  S46  1  0.401487  0.598450  0.863876  1
  S  S47  1  0.639414  0.360263  0.885988  1
  S  S48  1  0.018307  0.963468  0.446085  1
  S  S49  1  0.518307  0.946085  0.963468  1
  S  S50  1  0.018307  0.463468  0.946085  1
  S  S51  1  0.518307  0.446085  0.463468  1
  I  I52  1  0.273151  0.237162  0.738616  1
  I  I53  1  0.773151  0.738616  0.737162  1
  I  I54  1  0.773151  0.238616  0.237162  1
  I  I55  1  0.273151  0.737162  0.238616  1
