# generated using pymatgen
data_Li7SiTe5I
_symmetry_space_group_name_H-M   'P 1'
_cell_length_a   11.65025523
_cell_length_b   11.65731258
_cell_length_c   11.50151204
_cell_angle_alpha   90.61801661
_cell_angle_beta   87.55644896
_cell_angle_gamma   90.59878704
_symmetry_Int_Tables_number   1
_chemical_formula_structural   Li7SiTe5I
_chemical_formula_sum   'Li28 Si4 Te20 I4'
_cell_volume   1560.43886691
_cell_formula_units_Z   4
loop_
 _symmetry_equiv_pos_site_id
 _symmetry_equiv_pos_as_xyz
  1  'x, y, z'
loop_
 _atom_site_type_symbol
 _atom_site_label
 _atom_site_symmetry_multiplicity
 _atom_site_fract_x
 _atom_site_fract_y
 _atom_site_fract_z
 _atom_site_occupancy
  Li  Li0  1  0.025671  0.244100  0.759772  1
  Li  Li1  1  0.961190  0.900349  0.711157  1
  Li  Li2  1  0.991693  0.295453  0.186691  1
  Li  Li3  1  0.994630  0.779661  0.286696  1
  Li  Li4  1  0.845298  0.000469  0.273672  1
  Li  Li5  1  0.673885  0.979299  0.799074  1
  Li  Li6  1  0.187139  0.982636  0.305398  1
  Li  Li7  1  0.324118  0.790580  0.000533  1
  Li  Li8  1  0.620737  0.848060  0.101072  1
  Li  Li9  1  0.191502  0.289890  0.985549  1
  Li  Li10  1  0.894459  0.483381  0.766952  1
  Li  Li11  1  0.831881  0.579735  0.091627  1
  Li  Li12  1  0.190943  0.465639  0.796110  1
  Li  Li13  1  0.301988  0.293940  0.520602  1
  Li  Li14  1  0.655609  0.353887  0.607203  1
  Li  Li15  1  0.182261  0.768422  0.486484  1
  Li  Li16  1  0.529229  0.288944  0.298897  1
  Li  Li17  1  0.566847  0.699822  0.497637  1
  Li  Li18  1  0.481428  0.177355  0.794871  1
  Li  Li19  1  0.495265  0.790910  0.791256  1
  Li  Li20  1  0.383565  0.521769  0.260419  1
  Li  Li21  1  0.082031  0.544875  0.187966  1
  Li  Li22  1  0.773585  0.946922  0.529715  1
  Li  Li23  1  0.912616  0.720900  0.526924  1
  Li  Li24  1  0.575832  0.181327  0.037214  1
  Li  Li25  1  0.825992  0.283856  0.980358  1
  Li  Li26  1  0.209559  0.012587  0.646605  1
  Li  Li27  1  0.271883  0.051463  0.918027  1
  Si  Si28  1  0.001173  0.965826  0.980466  1
  Si  Si29  1  0.007085  0.467270  0.476288  1
  Si  Si30  1  0.498590  0.988249  0.475845  1
  Si  Si31  1  0.503722  0.483319  0.983710  1
  Te  Te32  1  0.112339  0.096080  0.114374  1
  Te  Te33  1  0.870737  0.831556  0.097076  1
  Te  Te34  1  0.877048  0.083292  0.850855  1
  Te  Te35  1  0.143680  0.859560  0.847828  1
  Te  Te36  1  0.083699  0.602298  0.631074  1
  Te  Te37  1  0.891173  0.317305  0.586221  1
  Te  Te38  1  0.876558  0.577591  0.345003  1
  Te  Te39  1  0.160318  0.381715  0.340746  1
  Te  Te40  1  0.622518  0.110612  0.605974  1
  Te  Te41  1  0.381499  0.839011  0.589849  1
  Te  Te42  1  0.369529  0.116457  0.368869  1
  Te  Te43  1  0.642230  0.874464  0.348630  1
  Te  Te44  1  0.592511  0.609098  0.135669  1
  Te  Te45  1  0.394144  0.331177  0.103813  1
  Te  Te46  1  0.373932  0.598152  0.861759  1
  Te  Te47  1  0.643756  0.362075  0.857044  1
  Te  Te48  1  0.256035  0.229807  0.751662  1
  Te  Te49  1  0.007167  0.938569  0.473286  1
  Te  Te50  1  0.491785  0.972792  0.953877  1
  Te  Te51  1  0.003418  0.440748  0.980516  1
  I  I52  1  0.735334  0.756552  0.699682  1
  I  I53  1  0.751125  0.215028  0.207209  1
  I  I54  1  0.233053  0.737715  0.233396  1
  I  I55  1  0.495001  0.463229  0.476582  1
