# generated using pymatgen
data_Li11P2(S3Br)3
_symmetry_space_group_name_H-M   'P 1'
_cell_length_a   10.05933666
_cell_length_b   10.10253151
_cell_length_c   10.06987338
_cell_angle_alpha   90.00000000
_cell_angle_beta   90.00000000
_cell_angle_gamma   91.44920665
_symmetry_Int_Tables_number   1
_chemical_formula_structural   Li11P2(S3Br)3
_chemical_formula_sum   'Li22 P4 S18 Br6'
_cell_volume   1023.02119189
_cell_formula_units_Z   2
loop_
 _symmetry_equiv_pos_site_id
 _symmetry_equiv_pos_as_xyz
  1  'x, y, z'
loop_
 _atom_site_type_symbol
 _atom_site_label
 _atom_site_symmetry_multiplicity
 _atom_site_fract_x
 _atom_site_fract_y
 _atom_site_fract_z
 _atom_site_occupancy
  Br  Br0  1  0.247820  0.254366  0.738348  1
  Br  Br1  1  0.752180  0.745634  0.738348  1
  Br  Br2  1  0.740979  0.238316  0.233398  1
  Br  Br3  1  0.259021  0.761684  0.233398  1
  Br  Br4  1  0.000000  0.000000  -0.035719  1
  Br  Br5  1  0.000000  0.500000  0.471293  1
  Li  Li6  1  0.001194  0.224915  0.789778  1
  Li  Li7  1  -0.001194  0.775085  0.789778  1
  Li  Li8  1  0.980382  0.178026  0.180936  1
  Li  Li9  1  0.019618  0.821974  0.180936  1
  Li  Li10  1  0.721324  0.062130  0.429629  1
  Li  Li11  1  0.785484  -0.011234  0.818324  1
  Li  Li12  1  0.278676  0.937870  0.429629  1
  Li  Li13  1  0.214516  0.011234  0.818324  1
  Li  Li14  1  0.345431  0.677064  0.006798  1
  Li  Li15  1  0.658133  0.667495  0.022022  1
  Li  Li16  1  0.341867  0.332505  0.022022  1
  Li  Li17  1  0.654569  0.322936  0.006798  1
  Li  Li18  1  0.656298  0.503243  0.778617  1
  Li  Li19  1  0.813332  0.469084  0.299392  1
  Li  Li20  1  0.343702  0.496757  0.778617  1
  Li  Li21  1  0.186668  0.530916  0.299392  1
  Li  Li22  1  0.179803  0.318843  0.500163  1
  Li  Li23  1  0.820197  0.681157  0.500163  1
  Li  Li24  1  0.482097  0.169830  0.302795  1
  Li  Li25  1  0.517903  0.830170  0.302795  1
  Li  Li26  1  0.488761  0.168701  0.638673  1
  Li  Li27  1  0.511239  0.831299  0.638673  1
  P  P28  1  0.000000  0.000000  0.503477  1
  P  P29  1  0.500000  0.000000  -0.021229  1
  P  P30  1  0.000000  0.500000  -0.005139  1
  P  P31  1  0.500000  0.500000  0.473469  1
  S  S32  1  0.116887  0.116219  0.379840  1
  S  S33  1  0.883113  0.883781  0.379840  1
  S  S34  1  0.875370  0.111318  0.616480  1
  S  S35  1  0.124630  0.888682  0.616480  1
  S  S36  1  0.369159  0.102268  0.092534  1
  S  S37  1  0.395295  0.869657  0.856966  1
  S  S38  1  0.630841  0.897732  0.092534  1
  S  S39  1  0.604705  0.130343  0.856966  1
  S  S40  1  0.110682  0.376877  0.112642  1
  S  S41  1  0.868119  0.391384  0.880929  1
  S  S42  1  0.131881  0.608616  0.880929  1
  S  S43  1  0.889318  0.623123  0.112642  1
  S  S44  1  0.384802  0.623696  0.581469  1
  S  S45  1  0.372308  0.384968  0.356199  1
  S  S46  1  0.615198  0.376304  0.581469  1
  S  S47  1  0.627692  0.615032  0.356199  1
  S  S48  1  0.500000  0.000000  0.470630  1
  S  S49  1  0.500000  0.500000  -0.041686  1
