# generated using pymatgen
data_Li7SiS5Br
_symmetry_space_group_name_H-M   'P 1'
_cell_length_a   10.41404381
_cell_length_b   10.12500803
_cell_length_c   10.12500803
_cell_angle_alpha   89.33755727
_cell_angle_beta   90.69533866
_cell_angle_gamma   90.69533866
_symmetry_Int_Tables_number   1
_chemical_formula_structural   Li7SiS5Br
_chemical_formula_sum   'Li28 Si4 S20 Br4'
_cell_volume   1067.37711461
_cell_formula_units_Z   4
loop_
 _symmetry_equiv_pos_site_id
 _symmetry_equiv_pos_as_xyz
  1  'x, y, z'
loop_
 _atom_site_type_symbol
 _atom_site_label
 _atom_site_symmetry_multiplicity
 _atom_site_fract_x
 _atom_site_fract_y
 _atom_site_fract_z
 _atom_site_occupancy
  Li  Li0  1  0.033380  0.332822  0.779420  1
  Li  Li1  1  0.986819  0.713029  0.769431  1
  Li  Li2  1  0.986819  0.213029  0.269431  1
  Li  Li3  1  0.033380  0.832822  0.279420  1
  Li  Li4  1  0.735995  0.005435  0.223624  1
  Li  Li5  1  0.752251  0.981621  0.766536  1
  Li  Li6  1  0.295236  0.975323  0.200234  1
  Li  Li7  1  0.235995  0.723624  0.005435  1
  Li  Li8  1  0.795236  0.700234  0.975323  1
  Li  Li9  1  0.252251  0.266536  0.981621  1
  Li  Li10  1  0.735995  0.505435  0.723624  1
  Li  Li11  1  0.752251  0.481621  0.266536  1
  Li  Li12  1  0.295236  0.475323  0.700234  1
  Li  Li13  1  0.235995  0.223624  0.505435  1
  Li  Li14  1  0.795236  0.200234  0.475323  1
  Li  Li15  1  0.252251  0.766536  0.481621  1
  Li  Li16  1  0.533380  0.279420  0.332822  1
  Li  Li17  1  0.486819  0.769431  0.213029  1
  Li  Li18  1  0.486819  0.269431  0.713029  1
  Li  Li19  1  0.533380  0.779420  0.832822  1
  Li  Li20  1  0.323081  0.510711  0.305601  1
  Li  Li21  1  0.072299  0.567061  0.211621  1
  Li  Li22  1  0.572299  0.711621  0.567061  1
  Li  Li23  1  0.823081  0.805601  0.510711  1
  Li  Li24  1  0.572299  0.211621  0.067061  1
  Li  Li25  1  0.823081  0.305601  0.010711  1
  Li  Li26  1  0.323081  0.010711  0.805601  1
  Li  Li27  1  0.072299  0.067061  0.711621  1
  Si  Si28  1  0.010933  0.003553  0.990498  1
  Si  Si29  1  0.010933  0.503553  0.490498  1
  Si  Si30  1  0.510933  0.990498  0.503553  1
  Si  Si31  1  0.510933  0.490498  0.003553  1
  S  S32  1  0.130485  0.116986  0.117876  1
  S  S33  1  0.886200  0.879093  0.101149  1
  S  S34  1  0.904617  0.134248  0.863083  1
  S  S35  1  0.126163  0.885047  0.863260  1
  S  S36  1  0.130485  0.616986  0.617876  1
  S  S37  1  0.886200  0.379093  0.601149  1
  S  S38  1  0.904617  0.634248  0.363083  1
  S  S39  1  0.126163  0.385047  0.363260  1
  S  S40  1  0.630485  0.117876  0.616986  1
  S  S41  1  0.404617  0.863083  0.634248  1
  S  S42  1  0.386200  0.101149  0.379093  1
  S  S43  1  0.626163  0.863260  0.385047  1
  S  S44  1  0.630485  0.617876  0.116986  1
  S  S45  1  0.404617  0.363083  0.134248  1
  S  S46  1  0.386200  0.601149  0.879093  1
  S  S47  1  0.626163  0.363260  0.885047  1
  S  S48  1  0.251411  0.237562  0.743151  1
  S  S49  1  0.751411  0.743151  0.737562  1
  S  S50  1  0.751411  0.243151  0.237562  1
  S  S51  1  0.251411  0.737562  0.243151  1
  Br  Br52  1  -0.008869  0.009441  0.475474  1
  Br  Br53  1  0.491131  0.975474  0.009441  1
  Br  Br54  1  -0.008869  0.509441  0.975474  1
  Br  Br55  1  0.491131  0.475474  0.509441  1
