data_Li22PS4S18Br6_c00022_contcar
_audit_creation_date              2019-04-03
_audit_creation_method            'Materials Studio'
_symmetry_space_group_name_H-M    'P1'
_symmetry_Int_Tables_number       1
_symmetry_cell_setting            triclinic
loop_
_symmetry_equiv_pos_as_xyz
  x,y,z
_cell_length_a                    10.5121
_cell_length_b                    10.2059
_cell_length_c                    9.9936
_cell_angle_alpha                 90.7781
_cell_angle_beta                  89.5789
_cell_angle_gamma                 91.6560
loop_
_atom_site_label
_atom_site_type_symbol
_atom_site_fract_x
_atom_site_fract_y
_atom_site_fract_z
_atom_site_U_iso_or_equiv
_atom_site_adp_type
_atom_site_occupancy
Br1    Br    0.75371   0.75113   0.74221   0.00000  Uiso   1.00
Br2    Br    0.25459   0.75378   0.24119   0.00000  Uiso   1.00
Br3    Br    0.04619   0.02155  -0.02739   0.00000  Uiso   1.00
Br4    Br    0.44152   0.51288  -0.02522   0.00000  Uiso   1.00
Br5    Br    0.54460   0.02329   0.47412   0.00000  Uiso   1.00
Br6    Br   -0.05567   0.51219   0.47444   0.00000  Uiso   1.00
Li7    Li    0.02673   0.21125   0.78543   0.00000  Uiso   1.00
Li8    Li    0.97053   0.28658   0.29020   0.00000  Uiso   1.00
Li9    Li    0.28779   0.71174  -0.00659   0.00000  Uiso   1.00
Li10   Li    0.02181   0.68856   0.30449   0.00000  Uiso   1.00
Li11   Li    0.75567   0.24302   0.02466   0.00000  Uiso   1.00
Li12   Li   -0.01504   0.82198   0.81904   0.00000  Uiso   1.00
Li13   Li    0.23176   0.23689   0.98613   0.00000  Uiso   1.00
Li14   Li    0.23441   0.01888   0.76295   0.00000  Uiso   1.00
Li15   Li    0.18143   0.98880   0.18587   0.00000  Uiso   1.00
Li16   Li    0.68075   0.98738   0.68596   0.00000  Uiso   1.00
Li17   Li    0.73491   0.01934   0.26106   0.00000  Uiso   1.00
Li18   Li    0.52137   0.68849   0.80454   0.00000  Uiso   1.00
Li19   Li    0.48582   0.82290   0.32000   0.00000  Uiso   1.00
Li20   Li    0.52582   0.21357   0.28434   0.00000  Uiso   1.00
Li21   Li    0.47079   0.28598   0.79004   0.00000  Uiso   1.00
Li22   Li    0.81650   0.50606   0.69932   0.00000  Uiso   1.00
Li23   Li    0.76284   0.48103   0.26491   0.00000  Uiso   1.00
Li24   Li    0.26163   0.48091   0.76315   0.00000  Uiso   1.00
Li25   Li    0.31591   0.50970   0.20016   0.00000  Uiso   1.00
Li26   Li    0.78899   0.71145   0.49499   0.00000  Uiso   1.00
Li27   Li    0.25764   0.24152   0.52421   0.00000  Uiso   1.00
Li28   Li    0.72830   0.23266   0.48610   0.00000  Uiso   1.00
P29    P    -0.00235  -0.00234   0.49881   0.00000  Uiso   1.00
P30    P     0.49824  -0.00234  -0.00133   0.00000  Uiso   1.00
P31    P    -0.00052   0.50575   0.00207   0.00000  Uiso   1.00
P32    P     0.49950   0.50642   0.50206   0.00000  Uiso   1.00
S33    S     0.11043   0.12161   0.38134   0.00000  Uiso   1.00
S34    S     0.39246   0.88314   0.86518   0.00000  Uiso   1.00
S35    S     0.88077   0.11005   0.61911   0.00000  Uiso   1.00
S36    S     0.60666   0.87919   0.10868   0.00000  Uiso   1.00
S37    S     0.10635   0.87916   0.60848   0.00000  Uiso   1.00
S38    S     0.38132   0.11062   0.11858   0.00000  Uiso   1.00
S39    S     0.89154   0.88303   0.36571   0.00000  Uiso   1.00
S40    S     0.61128   0.12144   0.88120   0.00000  Uiso   1.00
S41    S     0.88628   0.62386   0.11105   0.00000  Uiso   1.00
S42    S     0.89038   0.37730   0.88385   0.00000  Uiso   1.00
S43    S     0.11456   0.39711   0.12403   0.00000  Uiso   1.00
S44    S     0.10580   0.62045   0.87103   0.00000  Uiso   1.00
S45    S     0.60691   0.62122   0.37215   0.00000  Uiso   1.00
S46    S     0.38647   0.62444   0.61122   0.00000  Uiso   1.00
S47    S     0.61377   0.39607   0.62335   0.00000  Uiso   1.00
S48    S     0.38936   0.37948   0.38328   0.00000  Uiso   1.00
S49    S     0.25012   0.25026   0.75325   0.00000  Uiso   1.00
S50    S     0.74943   0.25058   0.25362   0.00000  Uiso   1.00
loop_
_geom_bond_atom_site_label_1
_geom_bond_atom_site_label_2
_geom_bond_distance
_geom_bond_site_symmetry_2
_ccdc_geom_bond_type
P29    S33     2.078   .     D
P29    S35     2.072   1_455 S
P29    S37     2.026   1_545 S
P29    S39     2.070   1_445 S
P30    S34     2.071   1_544 D
P30    S36     2.026   1_545 S
P30    S38     2.073   .     S
P30    S40     2.078   1_554 S
P31    S41     2.021   1_455 D
P31    S42     2.079   1_454 S
P31    S43     2.077   .     S
P31    S44     2.069   1_554 S
P32    S45     2.068   .     S
P32    S46     2.020   .     S
P32    S47     2.078   .     S
P32    S48     2.078   .     D
S34    P30     2.071   1_566 D
S35    P29     2.072   1_655 S
S36    P30     2.026   1_565 S
S37    P29     2.026   1_565 S
S39    P29     2.070   1_665 S
S40    P30     2.078   1_556 S
S41    P31     2.021   1_655 D
S42    P31     2.079   1_656 S
S44    P31     2.069   1_556 S
