# generated using pymatgen
data_Li6Te5PCl
_symmetry_space_group_name_H-M   'P 1'
_cell_length_a   11.41123075
_cell_length_b   11.41123075
_cell_length_c   11.41123075
_cell_angle_alpha   90.60617173
_cell_angle_beta   89.39382827
_cell_angle_gamma   89.39382827
_symmetry_Int_Tables_number   1
_chemical_formula_structural   Li6Te5PCl
_chemical_formula_sum   'Li24 Te20 P4 Cl4'
_cell_volume   1485.67570809
_cell_formula_units_Z   4
loop_
 _symmetry_equiv_pos_site_id
 _symmetry_equiv_pos_as_xyz
  1  'x, y, z'
loop_
 _atom_site_type_symbol
 _atom_site_label
 _atom_site_symmetry_multiplicity
 _atom_site_fract_x
 _atom_site_fract_y
 _atom_site_fract_z
 _atom_site_occupancy
  Cl  Cl0  1  0.032902  -0.032902  0.467098  1
  Cl  Cl1  1  0.261789  0.288214  0.788214  1
  Cl  Cl2  1  0.711786  0.738211  0.788214  1
  Cl  Cl3  1  0.711786  0.288214  0.238211  1
  Li  Li4  1  0.035399  0.311627  0.811627  1
  Li  Li5  1  0.526036  0.205317  0.183595  1
  Li  Li6  1  0.085536  0.621973  0.866630  1
  Li  Li7  1  0.452233  0.777057  0.277057  1
  Li  Li8  1  0.085536  0.366630  0.121973  1
  Li  Li9  1  0.467902  0.247273  0.747273  1
  Li  Li10  1  -0.010955  0.827754  0.327754  1
  Li  Li11  1  0.526036  0.683595  0.705317  1
  Li  Li12  1  0.633370  -0.085536  0.121973  1
  Li  Li13  1  0.752727  0.532098  0.747273  1
  Li  Li14  1  0.688373  -0.035399  0.811627  1
  Li  Li15  1  0.794683  0.473964  0.183595  1
  Li  Li16  1  0.172246  0.010955  0.327754  1
  Li  Li17  1  0.316405  0.473964  0.705317  1
  Li  Li18  1  0.378027  -0.085536  0.866630  1
  Li  Li19  1  0.222943  0.547767  0.277057  1
  Li  Li20  1  0.222943  0.777057  0.047767  1
  Li  Li21  1  0.378027  0.366630  0.414464  1
  Li  Li22  1  0.794683  0.683595  0.973964  1
  Li  Li23  1  0.688373  0.311627  0.464601  1
  Li  Li24  1  0.316405  0.205317  0.973964  1
  Li  Li25  1  0.172246  0.827754  0.510955  1
  Li  Li26  1  0.752727  0.247273  0.032098  1
  Li  Li27  1  0.633370  0.621973  0.414464  1
  P  P28  1  -0.000914  0.000914  -0.011566  1
  P  P29  1  -0.000914  0.488434  0.500914  1
  P  P30  1  0.511566  0.000914  0.500914  1
  P  P31  1  0.483815  0.516185  0.016185  1
  Te  Te32  1  0.130052  0.125298  0.115065  1
  Te  Te33  1  0.130052  0.615065  0.625298  1
  Te  Te34  1  0.641607  0.123781  0.623781  1
  Te  Te35  1  0.611538  0.647780  0.147780  1
  Te  Te36  1  0.874702  0.869948  0.115065  1
  Te  Te37  1  0.876219  0.358393  0.623781  1
  Te  Te38  1  0.384935  0.869948  0.625298  1
  Te  Te39  1  0.352220  0.388462  0.147780  1
  Te  Te40  1  0.876219  0.123781  0.858393  1
  Te  Te41  1  0.874702  0.615065  0.369948  1
  Te  Te42  1  0.384935  0.125298  0.369948  1
  Te  Te43  1  0.352220  0.647780  0.888462  1
  Te  Te44  1  0.127673  0.872327  0.853201  1
  Te  Te45  1  0.127673  0.353201  0.372327  1
  Te  Te46  1  0.646799  0.872327  0.372327  1
  Te  Te47  1  0.609525  0.390475  0.890475  1
  Te  Te48  1  0.519490  0.480510  0.562403  1
  Te  Te49  1  -0.062403  0.480510  -0.019490  1
  Te  Te50  1  0.519490  0.062403  -0.019490  1
  Te  Te51  1  0.225265  0.774735  0.274735  1
