# generated using pymatgen
data_Li7SnSe5Br
_symmetry_space_group_name_H-M   'P 1'
_cell_length_a   11.11598996
_cell_length_b   10.97904778
_cell_length_c   11.12674658
_cell_angle_alpha   90.75901949
_cell_angle_beta   90.16903165
_cell_angle_gamma   88.18271723
_symmetry_Int_Tables_number   1
_chemical_formula_structural   Li7SnSe5Br
_chemical_formula_sum   'Li28 Sn4 Se20 Br4'
_cell_volume   1357.13493210
_cell_formula_units_Z   4
loop_
 _symmetry_equiv_pos_site_id
 _symmetry_equiv_pos_as_xyz
  1  'x, y, z'
loop_
 _atom_site_type_symbol
 _atom_site_label
 _atom_site_symmetry_multiplicity
 _atom_site_fract_x
 _atom_site_fract_y
 _atom_site_fract_z
 _atom_site_occupancy
  Li  Li0  1  0.026840  0.309624  0.786820  1
  Li  Li1  1  0.981373  0.731938  0.762495  1
  Li  Li2  1  0.997863  0.183359  0.291480  1
  Li  Li3  1  0.019644  0.809329  0.293916  1
  Li  Li4  1  0.765742  0.005447  0.241012  1
  Li  Li5  1  0.719900  0.994047  0.775957  1
  Li  Li6  1  0.209531  0.998672  0.308986  1
  Li  Li7  1  0.250314  0.738890  0.995345  1
  Li  Li8  1  0.760850  0.749668  0.963267  1
  Li  Li9  1  0.224944  0.283273  0.985167  1
  Li  Li10  1  0.748028  0.514366  0.743108  1
  Li  Li11  1  0.720793  0.488361  0.279460  1
  Li  Li12  1  0.272384  0.466106  0.737588  1
  Li  Li13  1  0.241857  0.227119  0.518884  1
  Li  Li14  1  0.783561  0.224461  0.468966  1
  Li  Li15  1  0.180149  0.830966  0.555173  1
  Li  Li16  1  0.534591  0.288765  0.310187  1
  Li  Li17  1  0.502540  0.717061  0.274573  1
  Li  Li18  1  0.491600  0.223717  0.772894  1
  Li  Li19  1  0.526839  0.795078  0.804195  1
  Li  Li20  1  0.319184  0.491243  0.296568  1
  Li  Li21  1  0.023042  0.497407  0.204306  1
  Li  Li22  1  0.590314  0.717184  0.550480  1
  Li  Li23  1  0.845615  0.830942  0.503784  1
  Li  Li24  1  0.587930  0.208659  0.054149  1
  Li  Li25  1  0.841670  0.300207  0.015132  1
  Li  Li26  1  0.322580  0.009953  0.792514  1
  Li  Li27  1  0.051324  0.053385  0.685673  1
  Sn  Sn28  1  0.016449  0.001632  0.990279  1
  Sn  Sn29  1  0.009186  0.499459  0.497646  1
  Sn  Sn30  1  0.514158  0.004376  0.496318  1
  Sn  Sn31  1  0.517388  0.498639  0.997903  1
  Se  Se32  1  0.148941  0.122803  0.126832  1
  Se  Se33  1  0.891511  0.857383  0.109582  1
  Se  Se34  1  0.891068  0.131937  0.846705  1
  Se  Se35  1  0.143727  0.874008  0.839929  1
  Se  Se36  1  0.138045  0.622836  0.636748  1
  Se  Se37  1  0.876632  0.366723  0.620547  1
  Se  Se38  1  0.890506  0.630527  0.348368  1
  Se  Se39  1  0.139082  0.363900  0.357007  1
  Se  Se40  1  0.642236  0.143874  0.619047  1
  Se  Se41  1  0.398195  0.853389  0.620662  1
  Se  Se42  1  0.380306  0.131895  0.362285  1
  Se  Se43  1  0.651861  0.858880  0.374356  1
  Se  Se44  1  0.647673  0.638950  0.118303  1
  Se  Se45  1  0.401095  0.349389  0.124730  1
  Se  Se46  1  0.386645  0.622452  0.855505  1
  Se  Se47  1  0.654559  0.352796  0.877801  1
  Se  Se48  1  0.251130  0.234896  0.749161  1
  Se  Se49  1  0.751597  0.751113  0.732273  1
  Se  Se50  1  0.759104  0.243118  0.237184  1
  Se  Se51  1  0.029048  0.979777  0.458959  1
  Br  Br52  1  0.259041  0.727052  0.227975  1
  Br  Br53  1  0.525417  0.010408  0.922808  1
  Br  Br54  1  0.025448  0.446487  0.983880  1
  Br  Br55  1  0.518948  0.517852  0.420908  1
