# generated using pymatgen
data_Li7GeTe5I
_symmetry_space_group_name_H-M   'P 1'
_cell_length_a   11.82014321
_cell_length_b   11.40711271
_cell_length_c   11.40711271
_cell_angle_alpha   94.98312226
_cell_angle_beta   90.57422841
_cell_angle_gamma   90.57422841
_symmetry_Int_Tables_number   1
_chemical_formula_structural   Li7GeTe5I
_chemical_formula_sum   'Li28 Ge4 Te20 I4'
_cell_volume   1532.08135607
_cell_formula_units_Z   4
loop_
 _symmetry_equiv_pos_site_id
 _symmetry_equiv_pos_as_xyz
  1  'x, y, z'
loop_
 _atom_site_type_symbol
 _atom_site_label
 _atom_site_symmetry_multiplicity
 _atom_site_fract_x
 _atom_site_fract_y
 _atom_site_fract_z
 _atom_site_occupancy
  Li  Li0  1  0.990909  0.265551  0.747989  1
  Li  Li1  1  0.064827  0.983735  0.672144  1
  Li  Li2  1  0.064827  0.483735  0.172144  1
  Li  Li3  1  0.990909  0.765551  0.247989  1
  Li  Li4  1  0.851516  0.997437  0.243156  1
  Li  Li5  1  0.663818  0.948239  0.779690  1
  Li  Li6  1  0.124227  0.104392  0.348511  1
  Li  Li7  1  0.351516  0.743156  0.997437  1
  Li  Li8  1  0.624227  0.848511  0.104392  1
  Li  Li9  1  0.163818  0.279690  0.948239  1
  Li  Li10  1  0.851516  0.497437  0.743156  1
  Li  Li11  1  0.663818  0.448239  0.279690  1
  Li  Li12  1  0.124227  0.604392  0.848511  1
  Li  Li13  1  0.351516  0.243156  0.497437  1
  Li  Li14  1  0.624227  0.348511  0.604392  1
  Li  Li15  1  0.163818  0.779690  0.448239  1
  Li  Li16  1  0.490909  0.247989  0.265551  1
  Li  Li17  1  0.564827  0.672144  0.483735  1
  Li  Li18  1  0.564827  0.172144  0.983735  1
  Li  Li19  1  0.490909  0.747989  0.765551  1
  Li  Li20  1  0.371894  0.499538  0.243242  1
  Li  Li21  1  0.288974  0.525756  0.542573  1
  Li  Li22  1  0.788974  0.042573  0.525756  1
  Li  Li23  1  0.871894  0.743242  0.499538  1
  Li  Li24  1  0.788974  0.542573  0.025756  1
  Li  Li25  1  0.871894  0.243242  -0.000462  1
  Li  Li26  1  0.371894  -0.000462  0.743242  1
  Li  Li27  1  0.288974  0.025756  0.042573  1
  Ge  Ge28  1  0.987666  0.952011  0.958972  1
  Ge  Ge29  1  0.987666  0.452011  0.458972  1
  Ge  Ge30  1  0.487666  0.958972  0.452011  1
  Ge  Ge31  1  0.487666  0.458972  0.952011  1
  Te  Te32  1  0.065925  0.123293  0.108332  1
  Te  Te33  1  0.854803  0.808594  0.062393  1
  Te  Te34  1  0.868951  0.063810  0.805947  1
  Te  Te35  1  0.161741  0.851378  0.855120  1
  Te  Te36  1  0.065925  0.623293  0.608332  1
  Te  Te37  1  0.854803  0.308594  0.562393  1
  Te  Te38  1  0.868951  0.563810  0.305947  1
  Te  Te39  1  0.161741  0.351378  0.355120  1
  Te  Te40  1  0.565925  0.108332  0.623293  1
  Te  Te41  1  0.368951  0.805947  0.563810  1
  Te  Te42  1  0.354803  0.062393  0.308594  1
  Te  Te43  1  0.661741  0.855120  0.351378  1
  Te  Te44  1  0.565925  0.608332  0.123293  1
  Te  Te45  1  0.368951  0.305947  0.063810  1
  Te  Te46  1  0.354803  0.562393  0.808594  1
  Te  Te47  1  0.661741  0.355120  0.851378  1
  Te  Te48  1  0.990784  0.941327  0.437807  1
  Te  Te49  1  0.490784  0.937807  0.941327  1
  Te  Te50  1  0.990784  0.441327  0.937807  1
  Te  Te51  1  0.490784  0.437807  0.441327  1
  I  I52  1  0.213964  0.187032  0.704922  1
  I  I53  1  0.713964  0.704922  0.687032  1
  I  I54  1  0.713964  0.204922  0.187032  1
  I  I55  1  0.213964  0.687032  0.204922  1
