# generated using pymatgen
data_Li11P2(S3I)3
_symmetry_space_group_name_H-M   'P 1'
_cell_length_a   10.21654867
_cell_length_b   10.43825580
_cell_length_c   10.31365610
_cell_angle_alpha   90.25342152
_cell_angle_beta   90.90308333
_cell_angle_gamma   90.38387868
_symmetry_Int_Tables_number   1
_chemical_formula_structural   Li11P2(S3I)3
_chemical_formula_sum   'Li22 P4 S18 I6'
_cell_volume   1099.70611167
_cell_formula_units_Z   2
loop_
 _symmetry_equiv_pos_site_id
 _symmetry_equiv_pos_as_xyz
  1  'x, y, z'
loop_
 _atom_site_type_symbol
 _atom_site_label
 _atom_site_symmetry_multiplicity
 _atom_site_fract_x
 _atom_site_fract_y
 _atom_site_fract_z
 _atom_site_occupancy
  I  I0  1  0.243154  0.247406  0.747483  1
  I  I1  1  0.752204  0.742693  0.732730  1
  I  I2  1  0.748344  0.228168  0.251738  1
  I  I3  1  0.006250  0.968826  0.993790  1
  I  I4  1  0.009629  0.503607  0.490105  1
  I  I5  1  0.492669  0.988205  0.481507  1
  Li  Li6  1  0.991733  0.317619  0.683328  1
  Li  Li7  1  0.014184  0.692499  0.701859  1
  Li  Li8  1  0.998934  0.294363  0.297953  1
  Li  Li9  1  0.028056  0.756899  0.237552  1
  Li  Li10  1  0.682105  0.976109  0.286669  1
  Li  Li11  1  0.816129  0.994267  0.794209  1
  Li  Li12  1  0.289656  0.964614  0.265048  1
  Li  Li13  1  0.200968  0.993949  0.803935  1
  Li  Li14  1  0.216988  0.783053  0.020738  1
  Li  Li15  1  0.812140  0.780024  0.993301  1
  Li  Li16  1  0.323487  0.300256  0.014667  1
  Li  Li17  1  0.693383  0.283472  0.000168  1
  Li  Li18  1  0.677214  0.507879  0.830239  1
  Li  Li19  1  0.473149  0.691996  0.185040  1
  Li  Li20  1  0.358038  0.540179  0.839405  1
  Li  Li21  1  0.215696  0.522692  0.288663  1
  Li  Li22  1  0.308017  0.181185  0.497087  1
  Li  Li23  1  0.680687  0.185726  0.505477  1
  Li  Li24  1  0.301289  0.769682  0.471941  1
  Li  Li25  1  0.795140  0.670855  0.476613  1
  Li  Li26  1  0.547909  0.405620  0.213736  1
  Li  Li27  1  0.502369  0.284294  0.798058  1
  P  P28  1  0.002864  0.990181  0.491881  1
  P  P29  1  0.498529  0.979245  0.986563  1
  P  P30  1  0.005046  0.494349  0.001666  1
  P  P31  1  0.495777  0.489617  0.498779  1
  S  S32  1  0.256871  0.741039  0.244785  1
  S  S33  1  0.510914  0.437879  0.980928  1
  S  S34  1  0.116076  0.101333  0.372101  1
  S  S35  1  0.881842  0.872995  0.380646  1
  S  S36  1  0.890476  0.109704  0.605818  1
  S  S37  1  0.124898  0.879523  0.605429  1
  S  S38  1  0.393631  0.094990  0.105185  1
  S  S39  1  0.384092  0.863279  0.870751  1
  S  S40  1  0.616080  0.858131  0.098000  1
  S  S41  1  0.618891  0.093681  0.873371  1
  S  S42  1  0.122147  0.379395  0.117414  1
  S  S43  1  0.884152  0.383616  0.882200  1
  S  S44  1  0.128022  0.603324  0.887163  1
  S  S45  1  0.888101  0.601333  0.117620  1
  S  S46  1  0.398746  0.611928  0.615291  1
  S  S47  1  0.377801  0.372017  0.382790  1
  S  S48  1  0.619312  0.380219  0.615530  1
  S  S49  1  0.606210  0.586086  0.363049  1
