# generated using pymatgen
data_Li7GeTe5I
_symmetry_space_group_name_H-M   'P 1'
_cell_length_a   11.93404938
_cell_length_b   11.51519134
_cell_length_c   11.51519134
_cell_angle_alpha   93.39407157
_cell_angle_beta   88.73250567
_cell_angle_gamma   88.73250567
_symmetry_Int_Tables_number   1
_chemical_formula_structural   Li7GeTe5I
_chemical_formula_sum   'Li28 Ge4 Te20 I4'
_cell_volume   1578.85307995
_cell_formula_units_Z   4
loop_
 _symmetry_equiv_pos_site_id
 _symmetry_equiv_pos_as_xyz
  1  'x, y, z'
loop_
 _atom_site_type_symbol
 _atom_site_label
 _atom_site_symmetry_multiplicity
 _atom_site_fract_x
 _atom_site_fract_y
 _atom_site_fract_z
 _atom_site_occupancy
  Li  Li0  1  0.021793  0.294830  0.780564  1
  Li  Li1  1  0.966409  0.738757  0.828530  1
  Li  Li2  1  0.966409  0.238757  0.328530  1
  Li  Li3  1  0.021793  0.794830  0.280564  1
  Li  Li4  1  0.764206  0.003632  0.221063  1
  Li  Li5  1  0.710977  0.983818  0.780851  1
  Li  Li6  1  0.207974  0.975620  0.275220  1
  Li  Li7  1  0.264206  0.721063  0.003632  1
  Li  Li8  1  0.707974  0.775220  0.975620  1
  Li  Li9  1  0.210977  0.280851  0.983818  1
  Li  Li10  1  0.764206  0.503632  0.721063  1
  Li  Li11  1  0.710977  0.483818  0.280851  1
  Li  Li12  1  0.207974  0.475620  0.775220  1
  Li  Li13  1  0.264206  0.221063  0.503632  1
  Li  Li14  1  0.707974  0.275220  0.475620  1
  Li  Li15  1  0.210977  0.780851  0.483818  1
  Li  Li16  1  0.521793  0.280564  0.294830  1
  Li  Li17  1  0.466409  0.828530  0.238757  1
  Li  Li18  1  0.466409  0.328530  0.738757  1
  Li  Li19  1  0.521793  0.780564  0.794830  1
  Li  Li20  1  0.356950  0.522315  0.293460  1
  Li  Li21  1  0.095225  0.543133  0.207012  1
  Li  Li22  1  0.595225  0.707012  0.543133  1
  Li  Li23  1  0.856950  0.793460  0.522315  1
  Li  Li24  1  0.595225  0.207012  0.043133  1
  Li  Li25  1  0.856950  0.293460  0.022315  1
  Li  Li26  1  0.356950  0.022315  0.793460  1
  Li  Li27  1  0.095225  0.043133  0.707012  1
  Ge  Ge28  1  0.020434  0.995741  0.992342  1
  Ge  Ge29  1  0.020434  0.495741  0.492342  1
  Ge  Ge30  1  0.520434  0.992342  0.495741  1
  Ge  Ge31  1  0.520434  0.492342  0.995741  1
  Te  Te32  1  0.106715  0.142244  0.143580  1
  Te  Te33  1  0.897457  0.840848  0.089211  1
  Te  Te34  1  0.898776  0.109538  0.846774  1
  Te  Te35  1  0.170451  0.877800  0.859996  1
  Te  Te36  1  0.106715  0.642244  0.643580  1
  Te  Te37  1  0.897457  0.340848  0.589211  1
  Te  Te38  1  0.898776  0.609538  0.346774  1
  Te  Te39  1  0.170451  0.377800  0.359996  1
  Te  Te40  1  0.606715  0.143580  0.642244  1
  Te  Te41  1  0.398776  0.846774  0.609538  1
  Te  Te42  1  0.397457  0.089211  0.340848  1
  Te  Te43  1  0.670451  0.859996  0.377800  1
  Te  Te44  1  0.606715  0.643580  0.142244  1
  Te  Te45  1  0.398776  0.346774  0.109538  1
  Te  Te46  1  0.397457  0.589211  0.840848  1
  Te  Te47  1  0.670451  0.359996  0.877800  1
  Te  Te48  1  0.246812  0.233428  0.741818  1
  Te  Te49  1  0.746812  0.741818  0.733428  1
  Te  Te50  1  0.746812  0.241818  0.233428  1
  Te  Te51  1  0.246812  0.733428  0.241818  1
  I  I52  1  0.035821  0.968172  0.472593  1
  I  I53  1  0.535821  0.972593  0.968172  1
  I  I54  1  0.035821  0.468172  0.972593  1
  I  I55  1  0.535821  0.472593  0.468172  1
