# generated using pymatgen
data_Li7GeSe5Cl
_symmetry_space_group_name_H-M   'P 1'
_cell_length_a   10.85955315
_cell_length_b   10.80426180
_cell_length_c   10.80426180
_cell_angle_alpha   92.38700056
_cell_angle_beta   89.32582300
_cell_angle_gamma   89.32582300
_symmetry_Int_Tables_number   1
_chemical_formula_structural   Li7GeSe5Cl
_chemical_formula_sum   'Li28 Ge4 Se20 Cl4'
_cell_volume   1266.37522813
_cell_formula_units_Z   4
loop_
 _symmetry_equiv_pos_site_id
 _symmetry_equiv_pos_as_xyz
  1  'x, y, z'
loop_
 _atom_site_type_symbol
 _atom_site_label
 _atom_site_symmetry_multiplicity
 _atom_site_fract_x
 _atom_site_fract_y
 _atom_site_fract_z
 _atom_site_occupancy
  Li  Li0  1  0.023704  0.311686  0.796014  1
  Li  Li1  1  0.983211  0.746956  0.751829  1
  Li  Li2  1  0.983211  0.246956  0.251829  1
  Li  Li3  1  0.023704  0.811686  0.296014  1
  Li  Li4  1  0.746100  0.012550  0.229400  1
  Li  Li5  1  0.711778  0.991282  0.790109  1
  Li  Li6  1  0.264192  0.964906  0.238690  1
  Li  Li7  1  0.246100  0.729400  0.012550  1
  Li  Li8  1  0.764192  0.738690  0.964906  1
  Li  Li9  1  0.211778  0.290109  0.991282  1
  Li  Li10  1  0.746100  0.512550  0.729400  1
  Li  Li11  1  0.711778  0.491282  0.290109  1
  Li  Li12  1  0.264192  0.464906  0.738690  1
  Li  Li13  1  0.246100  0.229400  0.512550  1
  Li  Li14  1  0.764192  0.238690  0.464906  1
  Li  Li15  1  0.211778  0.790109  0.491282  1
  Li  Li16  1  0.523704  0.296014  0.311686  1
  Li  Li17  1  0.483211  0.751829  0.246956  1
  Li  Li18  1  0.483211  0.251829  0.746956  1
  Li  Li19  1  0.523704  0.796014  0.811686  1
  Li  Li20  1  0.335434  0.514303  0.312047  1
  Li  Li21  1  0.074561  0.542994  0.203705  1
  Li  Li22  1  0.574561  0.703705  0.542994  1
  Li  Li23  1  0.835434  0.812047  0.514303  1
  Li  Li24  1  0.574561  0.203705  0.042994  1
  Li  Li25  1  0.835434  0.312047  0.014303  1
  Li  Li26  1  0.335434  0.014303  0.812047  1
  Li  Li27  1  0.074561  0.042994  0.703705  1
  Ge  Ge28  1  0.014781  0.998836  0.996513  1
  Ge  Ge29  1  0.014781  0.498836  0.496513  1
  Ge  Ge30  1  0.514781  0.996513  0.498836  1
  Ge  Ge31  1  0.514781  0.496513  0.998836  1
  Se  Se32  1  0.138251  0.120123  0.131143  1
  Se  Se33  1  0.890314  0.864827  0.112058  1
  Se  Se34  1  0.896180  0.121630  0.861025  1
  Se  Se35  1  0.146695  0.875409  0.860830  1
  Se  Se36  1  0.138251  0.620123  0.631143  1
  Se  Se37  1  0.890314  0.364827  0.612058  1
  Se  Se38  1  0.896180  0.621630  0.361025  1
  Se  Se39  1  0.146695  0.375409  0.360830  1
  Se  Se40  1  0.638251  0.131143  0.620123  1
  Se  Se41  1  0.396180  0.861025  0.621630  1
  Se  Se42  1  0.390314  0.112058  0.364827  1
  Se  Se43  1  0.646695  0.860830  0.375409  1
  Se  Se44  1  0.638251  0.631143  0.120123  1
  Se  Se45  1  0.396180  0.361025  0.121630  1
  Se  Se46  1  0.390314  0.612058  0.864827  1
  Se  Se47  1  0.646695  0.360830  0.875409  1
  Se  Se48  1  0.247798  0.231460  0.748055  1
  Se  Se49  1  0.747798  0.748055  0.731460  1
  Se  Se50  1  0.747798  0.248055  0.231460  1
  Se  Se51  1  0.247798  0.731460  0.248055  1
  Cl  Cl52  1  0.027001  0.933391  0.501119  1
  Cl  Cl53  1  0.527001  0.001119  0.933391  1
  Cl  Cl54  1  0.027001  0.433391  0.001119  1
  Cl  Cl55  1  0.527001  0.501119  0.433391  1
