# generated using pymatgen
data_Li6Te5PBr
_symmetry_space_group_name_H-M   'P 1'
_cell_length_a   11.67424838
_cell_length_b   11.67424838
_cell_length_c   11.67424838
_cell_angle_alpha   91.95355009
_cell_angle_beta   88.04644991
_cell_angle_gamma   91.95355009
_symmetry_Int_Tables_number   1
_chemical_formula_structural   Li6Te5PBr
_chemical_formula_sum   'Li24 Te20 P4 Br4'
_cell_volume   1588.34815095
_cell_formula_units_Z   4
loop_
 _symmetry_equiv_pos_site_id
 _symmetry_equiv_pos_as_xyz
  1  'x, y, z'
loop_
 _atom_site_type_symbol
 _atom_site_label
 _atom_site_symmetry_multiplicity
 _atom_site_fract_x
 _atom_site_fract_y
 _atom_site_fract_z
 _atom_site_occupancy
  Br  Br0  1  0.076201  0.129860  0.576201  1
  Br  Br1  1  0.370140  0.423799  0.576201  1
  Br  Br2  1  0.076201  0.423799  0.870140  1
  Br  Br3  1  0.310424  0.189576  0.810424  1
  Li  Li4  1  0.009479  0.267519  0.732481  1
  Li  Li5  1  0.513431  0.179836  0.197720  1
  Li  Li6  1  0.968868  0.752346  0.770643  1
  Li  Li7  1  0.503641  0.796318  0.203682  1
  Li  Li8  1  0.968868  0.229357  0.247654  1
  Li  Li9  1  0.462015  0.295577  0.704423  1
  Li  Li10  1  0.043124  0.748547  0.251453  1
  Li  Li11  1  0.513431  0.802280  0.820164  1
  Li  Li12  1  0.703682  0.996359  0.203682  1
  Li  Li13  1  0.747654  0.531132  0.770643  1
  Li  Li14  1  0.697720  0.986569  0.820164  1
  Li  Li15  1  0.751453  0.456876  0.251453  1
  Li  Li16  1  0.320164  0.986569  0.197720  1
  Li  Li17  1  0.232481  0.490521  0.732481  1
  Li  Li18  1  0.204423  0.037985  0.704423  1
  Li  Li19  1  0.270643  0.531132  0.247654  1
  Li  Li20  1  0.320164  0.802280  0.013431  1
  Li  Li21  1  0.232481  0.267519  0.509479  1
  Li  Li22  1  0.703682  0.796318  0.003641  1
  Li  Li23  1  0.747654  0.229357  0.468868  1
  Li  Li24  1  0.204423  0.295577  0.962015  1
  Li  Li25  1  0.270643  0.752346  0.468868  1
  Li  Li26  1  0.697720  0.179836  0.013431  1
  Li  Li27  1  0.751453  0.748547  0.543124  1
  P  P28  1  0.015659  0.997858  0.002142  1
  P  P29  1  0.984465  0.515535  0.484465  1
  P  P30  1  0.502142  0.997858  0.515659  1
  P  P31  1  0.502142  0.484341  0.002142  1
  Te  Te32  1  0.145257  0.127435  0.128083  1
  Te  Te33  1  0.106475  0.648199  0.606475  1
  Te  Te34  1  0.628083  0.127435  0.645257  1
  Te  Te35  1  0.632120  0.604491  0.132120  1
  Te  Te36  1  0.895509  0.867880  0.132120  1
  Te  Te37  1  0.851801  0.393525  0.606475  1
  Te  Te38  1  0.372565  0.871917  0.645257  1
  Te  Te39  1  0.372565  0.354743  0.128083  1
  Te  Te40  1  0.888397  0.114938  0.885062  1
  Te  Te41  1  0.862888  0.637112  0.362888  1
  Te  Te42  1  0.385062  0.114938  0.388397  1
  Te  Te43  1  0.385062  0.611603  0.885062  1
  Te  Te44  1  0.145257  0.871917  0.872565  1
  Te  Te45  1  0.106475  0.393525  0.351801  1
  Te  Te46  1  0.632120  0.867880  0.395509  1
  Te  Te47  1  0.628083  0.354743  0.872565  1
  Te  Te48  1  0.533140  0.966860  0.033140  1
  Te  Te49  1  0.740316  0.759684  0.771837  1
  Te  Te50  1  0.740316  0.228163  0.240316  1
  Te  Te51  1  0.271837  0.759684  0.240316  1
