# generated using pymatgen
data_Li7GeSe5Cl
_symmetry_space_group_name_H-M   'P 1'
_cell_length_a   10.78334398
_cell_length_b   10.82583472
_cell_length_c   10.72346079
_cell_angle_alpha   90.40563578
_cell_angle_beta   89.17146710
_cell_angle_gamma   88.72070442
_symmetry_Int_Tables_number   1
_chemical_formula_structural   Li7GeSe5Cl
_chemical_formula_sum   'Li28 Ge4 Se20 Cl4'
_cell_volume   1251.36567395
_cell_formula_units_Z   4
loop_
 _symmetry_equiv_pos_site_id
 _symmetry_equiv_pos_as_xyz
  1  'x, y, z'
loop_
 _atom_site_type_symbol
 _atom_site_label
 _atom_site_symmetry_multiplicity
 _atom_site_fract_x
 _atom_site_fract_y
 _atom_site_fract_z
 _atom_site_occupancy
  Li  Li0  1  0.019917  0.316424  0.790258  1
  Li  Li1  1  0.979414  0.713662  0.765795  1
  Li  Li2  1  0.010908  0.188307  0.281863  1
  Li  Li3  1  0.038325  0.802829  0.278036  1
  Li  Li4  1  0.787382  0.012661  0.252470  1
  Li  Li5  1  0.745233  0.978198  0.750842  1
  Li  Li6  1  0.225280  0.990661  0.287253  1
  Li  Li7  1  0.288378  0.786440  0.993712  1
  Li  Li8  1  0.753688  0.741476  0.965561  1
  Li  Li9  1  0.213339  0.300934  0.981269  1
  Li  Li10  1  0.731177  0.508755  0.734129  1
  Li  Li11  1  0.706270  0.490137  0.297302  1
  Li  Li12  1  0.269720  0.463695  0.719050  1
  Li  Li13  1  0.229626  0.205140  0.505089  1
  Li  Li14  1  0.838791  0.176491  0.485671  1
  Li  Li15  1  0.170597  0.843383  0.559990  1
  Li  Li16  1  0.581612  0.273671  0.414550  1
  Li  Li17  1  0.494430  0.821914  0.179013  1
  Li  Li18  1  0.483536  0.252168  0.750552  1
  Li  Li19  1  0.520347  0.786691  0.806585  1
  Li  Li20  1  0.350545  0.493452  0.324145  1
  Li  Li21  1  0.007822  0.476288  0.195383  1
  Li  Li22  1  0.572165  0.704461  0.534161  1
  Li  Li23  1  0.842820  0.817900  0.498265  1
  Li  Li24  1  0.577515  0.235285  0.113789  1
  Li  Li25  1  0.837546  0.298963  0.019876  1
  Li  Li26  1  0.323513  0.011559  0.812798  1
  Li  Li27  1  0.062357  0.065274  0.692605  1
  Ge  Ge28  1  0.012836  0.997354  0.981821  1
  Ge  Ge29  1  0.009462  0.497258  0.489831  1
  Ge  Ge30  1  0.514798  0.997680  0.487638  1
  Ge  Ge31  1  0.505108  0.497837  -0.002790  1
  Se  Se32  1  0.148634  0.113423  0.103768  1
  Se  Se33  1  0.892804  0.861334  0.102986  1
  Se  Se34  1  0.886845  0.126777  0.853943  1
  Se  Se35  1  0.132372  0.874840  0.833530  1
  Se  Se36  1  0.135250  0.620028  0.617278  1
  Se  Se37  1  0.879482  0.371310  0.611832  1
  Se  Se38  1  0.895679  0.626083  0.349205  1
  Se  Se39  1  0.143989  0.372305  0.359127  1
  Se  Se40  1  0.636587  0.132554  0.610965  1
  Se  Se41  1  0.397081  0.865162  0.617496  1
  Se  Se42  1  0.401482  0.128151  0.352342  1
  Se  Se43  1  0.644992  0.862112  0.364783  1
  Se  Se44  1  0.626124  0.629433  0.121006  1
  Se  Se45  1  0.384416  0.369373  0.127168  1
  Se  Se46  1  0.379940  0.609431  0.855546  1
  Se  Se47  1  0.640528  0.353470  0.888793  1
  Se  Se48  1  0.247677  0.234070  0.742708  1
  Se  Se49  1  0.747094  0.744355  0.726274  1
  Se  Se50  1  0.772600  0.250176  0.252744  1
  Se  Se51  1  0.022066  0.996801  0.454808  1
  Cl  Cl52  1  0.265275  0.778479  0.222915  1
  Cl  Cl53  1  0.469406  0.930731  0.973120  1
  Cl  Cl54  1  0.013269  0.435061  0.982230  1
  Cl  Cl55  1  0.531949  0.493371  0.454707  1
