# generated using pymatgen
data_Li7SiS5Br
_symmetry_space_group_name_H-M   'P 1'
_cell_length_a   10.26417878
_cell_length_b   10.18449741
_cell_length_c   10.18449741
_cell_angle_alpha   89.55961250
_cell_angle_beta   89.44883191
_cell_angle_gamma   89.44883191
_symmetry_Int_Tables_number   1
_chemical_formula_structural   Li7SiS5Br
_chemical_formula_sum   'Li28 Si4 S20 Br4'
_cell_volume   1064.51233528
_cell_formula_units_Z   4
loop_
 _symmetry_equiv_pos_site_id
 _symmetry_equiv_pos_as_xyz
  1  'x, y, z'
loop_
 _atom_site_type_symbol
 _atom_site_label
 _atom_site_symmetry_multiplicity
 _atom_site_fract_x
 _atom_site_fract_y
 _atom_site_fract_z
 _atom_site_occupancy
  Li  Li0  1  0.026622  0.303380  0.785806  1
  Li  Li1  1  0.015684  0.775876  0.670540  1
  Li  Li2  1  0.015684  0.275876  0.170540  1
  Li  Li3  1  0.026622  0.803380  0.285806  1
  Li  Li4  1  0.832989  0.006733  0.315150  1
  Li  Li5  1  0.718239  0.986689  0.787386  1
  Li  Li6  1  0.157905  0.084942  0.353877  1
  Li  Li7  1  0.332989  0.815150  0.006733  1
  Li  Li8  1  0.657905  0.853877  0.084942  1
  Li  Li9  1  0.218239  0.287386  0.986689  1
  Li  Li10  1  0.832989  0.506733  0.815150  1
  Li  Li11  1  0.718239  0.486689  0.287386  1
  Li  Li12  1  0.157905  0.584942  0.853877  1
  Li  Li13  1  0.332989  0.315150  0.506733  1
  Li  Li14  1  0.657905  0.353877  0.584942  1
  Li  Li15  1  0.218239  0.787386  0.486689  1
  Li  Li16  1  0.526622  0.285806  0.303380  1
  Li  Li17  1  0.515684  0.670540  0.275876  1
  Li  Li18  1  0.515684  0.170540  0.775876  1
  Li  Li19  1  0.526622  0.785806  0.803380  1
  Li  Li20  1  0.323756  0.477382  0.292723  1
  Li  Li21  1  0.051820  0.543174  0.178736  1
  Li  Li22  1  0.551820  0.678736  0.543174  1
  Li  Li23  1  0.823756  0.792723  0.477382  1
  Li  Li24  1  0.551820  0.178736  0.043174  1
  Li  Li25  1  0.823756  0.292723  0.977382  1
  Li  Li26  1  0.323756  0.977382  0.792723  1
  Li  Li27  1  0.051820  0.043174  0.678736  1
  Si  Si28  1  0.016382  0.983360  0.991463  1
  Si  Si29  1  0.016382  0.483360  0.491463  1
  Si  Si30  1  0.516382  0.991463  0.483360  1
  Si  Si31  1  0.516382  0.491463  0.983360  1
  S  S32  1  0.148119  0.091450  0.107426  1
  S  S33  1  0.890490  0.872946  0.113436  1
  S  S34  1  0.907154  0.104209  0.856667  1
  S  S35  1  0.132195  0.857550  0.862621  1
  S  S36  1  0.148119  0.591450  0.607426  1
  S  S37  1  0.890490  0.372946  0.613436  1
  S  S38  1  0.907154  0.604209  0.356667  1
  S  S39  1  0.132195  0.357550  0.362621  1
  S  S40  1  0.648119  0.107426  0.591450  1
  S  S41  1  0.407154  0.856667  0.604209  1
  S  S42  1  0.390490  0.113436  0.372946  1
  S  S43  1  0.632195  0.862621  0.357550  1
  S  S44  1  0.648119  0.607426  0.091450  1
  S  S45  1  0.407154  0.356667  0.104209  1
  S  S46  1  0.390490  0.613436  0.872946  1
  S  S47  1  0.632195  0.362621  0.857550  1
  S  S48  1  0.018343  0.933516  0.477844  1
  S  S49  1  0.518343  0.977844  0.933516  1
  S  S50  1  0.018343  0.433516  0.977844  1
  S  S51  1  0.518343  0.477844  0.433516  1
  Br  Br52  1  0.260303  0.214283  0.733724  1
  Br  Br53  1  0.760303  0.733724  0.714283  1
  Br  Br54  1  0.760303  0.233724  0.214283  1
  Br  Br55  1  0.260303  0.714283  0.233724  1
