# generated using pymatgen
data_Li7SnS5I
_symmetry_space_group_name_H-M   'P 1'
_cell_length_a   10.60744460
_cell_length_b   10.76718288
_cell_length_c   10.61744083
_cell_angle_alpha   90.18175487
_cell_angle_beta   90.10994605
_cell_angle_gamma   89.89101474
_symmetry_Int_Tables_number   1
_chemical_formula_structural   Li7SnS5I
_chemical_formula_sum   'Li28 Sn4 S20 I4'
_cell_volume   1212.63178042
_cell_formula_units_Z   4
loop_
 _symmetry_equiv_pos_site_id
 _symmetry_equiv_pos_as_xyz
  1  'x, y, z'
loop_
 _atom_site_type_symbol
 _atom_site_label
 _atom_site_symmetry_multiplicity
 _atom_site_fract_x
 _atom_site_fract_y
 _atom_site_fract_z
 _atom_site_occupancy
  Li  Li0  1  0.019260  0.292996  0.791380  1
  Li  Li1  1  0.998403  0.725187  0.767308  1
  Li  Li2  1  0.014776  0.292903  0.196880  1
  Li  Li3  1  0.008924  0.811818  0.297664  1
  Li  Li4  1  0.834610  0.003686  0.337451  1
  Li  Li5  1  0.752903  0.978209  0.734992  1
  Li  Li6  1  0.166657  0.030377  0.330224  1
  Li  Li7  1  0.318395  0.812012  0.985804  1
  Li  Li8  1  0.788584  0.723774  0.976574  1
  Li  Li9  1  0.229790  0.288882  0.976772  1
  Li  Li10  1  0.745607  0.519097  0.726904  1
  Li  Li11  1  0.722728  0.512418  0.286791  1
  Li  Li12  1  0.253332  0.486521  0.768444  1
  Li  Li13  1  0.228961  0.237597  0.529987  1
  Li  Li14  1  0.729680  0.283645  0.504170  1
  Li  Li15  1  0.198403  0.819593  0.534298  1
  Li  Li16  1  0.381952  0.099223  0.147901  1
  Li  Li17  1  0.556020  0.833460  0.174037  1
  Li  Li18  1  0.484504  0.302875  0.700348  1
  Li  Li19  1  0.537327  0.807811  0.826280  1
  Li  Li20  1  0.379754  0.359658  0.324354  1
  Li  Li21  1  0.104265  0.556337  0.226290  1
  Li  Li22  1  0.577788  0.733652  0.566304  1
  Li  Li23  1  0.848270  0.794000  0.514318  1
  Li  Li24  1  0.528007  0.209172  0.959444  1
  Li  Li25  1  0.727549  0.035235  0.027581  1
  Li  Li26  1  0.337227  0.028994  0.801003  1
  Li  Li27  1  0.037963  0.023414  0.690548  1
  Sn  Sn28  1  0.021123  0.998589  0.992687  1
  Sn  Sn29  1  0.021610  0.500584  0.502583  1
  Sn  Sn30  1  0.511839  0.008842  0.500231  1
  Sn  Sn31  1  0.518600  0.502465  0.991043  1
  S  S32  1  0.149435  0.130158  0.123454  1
  S  S33  1  0.874928  0.883354  0.121971  1
  S  S34  1  0.885027  0.115598  0.854828  1
  S  S35  1  0.148152  0.883337  0.846347  1
  S  S36  1  0.148252  0.628182  0.634342  1
  S  S37  1  0.889234  0.373077  0.628062  1
  S  S38  1  0.906023  0.624350  0.351755  1
  S  S39  1  0.150265  0.374940  0.361486  1
  S  S40  1  0.631261  0.139047  0.637296  1
  S  S41  1  0.401425  0.868298  0.637620  1
  S  S42  1  0.365044  0.130543  0.377498  1
  S  S43  1  0.651539  0.870326  0.385178  1
  S  S44  1  0.645989  0.634420  0.121715  1
  S  S45  1  0.404520  0.340383  0.104332  1
  S  S46  1  0.389503  0.636446  0.866543  1
  S  S47  1  0.639156  0.369982  0.854847  1
  S  S48  1  0.256475  0.251343  0.752631  1
  S  S49  1  0.762793  0.751316  0.740222  1
  S  S50  1  0.014169  0.953243  0.476589  1
  S  S51  1  0.503748  0.981933  0.992144  1
  I  I52  1  0.764234  0.239760  0.242696  1
  I  I53  1  0.264079  0.768618  0.244208  1
  I  I54  1  0.028517  0.479682  0.988906  1
  I  I55  1  0.541417  0.484420  0.490514  1
