# generated using pymatgen
data_Li7GeS5Cl
_symmetry_space_group_name_H-M   'P 1'
_cell_length_a   10.24287959
_cell_length_b   10.15436462
_cell_length_c   10.42245831
_cell_angle_alpha   91.49541809
_cell_angle_beta   90.40129886
_cell_angle_gamma   87.50846373
_symmetry_Int_Tables_number   1
_chemical_formula_structural   Li7GeS5Cl
_chemical_formula_sum   'Li28 Ge4 S20 Cl4'
_cell_volume   1082.62685481
_cell_formula_units_Z   4
loop_
 _symmetry_equiv_pos_site_id
 _symmetry_equiv_pos_as_xyz
  1  'x, y, z'
loop_
 _atom_site_type_symbol
 _atom_site_label
 _atom_site_symmetry_multiplicity
 _atom_site_fract_x
 _atom_site_fract_y
 _atom_site_fract_z
 _atom_site_occupancy
  Li  Li0  1  0.013016  0.288435  0.760156  1
  Li  Li1  1  0.988462  0.717205  0.803518  1
  Li  Li2  1  0.982159  0.214549  0.374101  1
  Li  Li3  1  0.013051  0.784411  0.265575  1
  Li  Li4  1  0.809834  0.001041  0.280104  1
  Li  Li5  1  0.705750  0.985484  0.762214  1
  Li  Li6  1  0.186239  0.017317  0.276960  1
  Li  Li7  1  0.315370  0.763746  0.000663  1
  Li  Li8  1  0.710556  0.787641  0.961073  1
  Li  Li9  1  0.226990  0.251485  0.974982  1
  Li  Li10  1  0.796959  0.504187  0.768850  1
  Li  Li11  1  0.704927  0.502049  0.266383  1
  Li  Li12  1  0.198857  0.476281  0.792282  1
  Li  Li13  1  0.245447  0.200115  0.514132  1
  Li  Li14  1  0.665764  0.337718  0.511653  1
  Li  Li15  1  0.188451  0.817081  0.494741  1
  Li  Li16  1  0.501177  0.298087  0.295669  1
  Li  Li17  1  0.496587  0.711802  0.298289  1
  Li  Li18  1  0.477831  0.262886  0.748798  1
  Li  Li19  1  0.524538  0.747867  0.739035  1
  Li  Li20  1  0.309547  0.503217  0.260533  1
  Li  Li21  1  0.320327  0.502761  0.539723  1
  Li  Li22  1  0.678495  0.658629  0.508525  1
  Li  Li23  1  0.855534  0.835314  0.517960  1
  Li  Li24  1  0.578318  0.188125  0.034035  1
  Li  Li25  1  0.873741  0.288871  0.008843  1
  Li  Li26  1  0.334492  0.011143  0.787487  1
  Li  Li27  1  0.063593  0.024477  0.682827  1
  Ge  Ge28  1  0.004463  0.002950  0.986133  1
  Ge  Ge29  1  0.009398  0.503460  0.488089  1
  Ge  Ge30  1  0.507370  0.998031  0.483116  1
  Ge  Ge31  1  0.514101  0.491115  0.980466  1
  S  S32  1  0.079171  0.159521  0.118565  1
  S  S33  1  0.882488  0.868287  0.093723  1
  S  S34  1  0.889248  0.110229  0.834077  1
  S  S35  1  0.153738  0.882333  0.870689  1
  S  S36  1  0.126491  0.629522  0.621512  1
  S  S37  1  0.884762  0.359122  0.581958  1
  S  S38  1  0.880275  0.628737  0.365602  1
  S  S39  1  0.159893  0.377930  0.381410  1
  S  S40  1  0.616854  0.136784  0.607837  1
  S  S41  1  0.382841  0.871735  0.601219  1
  S  S42  1  0.383468  0.110223  0.344154  1
  S  S43  1  0.652954  0.864068  0.380358  1
  S  S44  1  0.609190  0.640804  0.102965  1
  S  S45  1  0.394893  0.353724  0.094864  1
  S  S46  1  0.385950  0.598135  0.839457  1
  S  S47  1  0.656122  0.351205  0.880407  1
  S  S48  1  0.244522  0.235903  0.743384  1
  S  S49  1  0.758592  0.741608  0.727404  1
  S  S50  1  0.022121  0.982596  0.441567  1
  S  S51  1  0.518716  0.502473  0.422189  1
  Cl  Cl52  1  0.736582  0.243900  0.230279  1
  Cl  Cl53  1  0.255845  0.743769  0.234747  1
  Cl  Cl54  1  0.528283  0.979957  0.929397  1
  Cl  Cl55  1  0.995656  0.475735  0.911103  1
