# generated using pymatgen
data_Li23P4S19Br5
_symmetry_space_group_name_H-M   'P 1'
_cell_length_a   10.33789700
_cell_length_b   10.29209199
_cell_length_c   10.33624774
_cell_angle_alpha   89.99924171
_cell_angle_beta   90.05358592
_cell_angle_gamma   89.99937009
_symmetry_Int_Tables_number   1
_chemical_formula_structural   Li23P4S19Br5
_chemical_formula_sum   'Li23 P4 S19 Br5'
_cell_volume   1099.76167194
_cell_formula_units_Z   1
loop_
 _symmetry_equiv_pos_site_id
 _symmetry_equiv_pos_as_xyz
  1  'x, y, z'
loop_
 _atom_site_type_symbol
 _atom_site_label
 _atom_site_symmetry_multiplicity
 _atom_site_fract_x
 _atom_site_fract_y
 _atom_site_fract_z
 _atom_site_occupancy
  Li  Li1  1  0.022723  0.247204  0.748623  1
  Li  Li2  1  0.750003  0.754326  0.970302  1
  Li  Li3  1  0.996267  0.248477  0.250179  1
  Li  Li4  1  0.250133  0.751465  0.024059  1
  Li  Li5  1  0.024125  0.751489  0.250088  1
  Li  Li6  1  0.749047  0.247220  0.002779  1
  Li  Li7  1  0.970264  0.754298  0.749996  1
  Li  Li8  1  0.250381  0.248556  0.976408  1
  Li  Li9  1  0.250002  0.023073  0.750001  1
  Li  Li10  1  0.250000  0.976102  0.250002  1
  Li  Li11  1  0.750002  0.003098  0.250001  1
  Li  Li12  1  0.529709  0.754291  0.750008  1
  Li  Li13  1  0.475878  0.751488  0.249913  1
  Li  Li14  1  0.503730  0.248478  0.249820  1
  Li  Li15  1  0.477281  0.247205  0.751378  1
  Li  Li16  1  0.749998  0.524841  0.750002  1
  Li  Li17  1  0.749997  0.495770  0.249996  1
  Li  Li18  1  0.250001  0.476151  0.750001  1
  Li  Li19  1  0.250000  0.523790  0.250002  1
  Li  Li20  1  0.249868  0.751465  0.475944  1
  Li  Li21  1  0.750004  0.754324  0.529680  1
  Li  Li22  1  0.249623  0.248553  0.523596  1
  Li  Li23  1  0.750956  0.247218  0.497211  1
  P  P24  1  -0.001235  0.002742  0.501943  1
  P  P25  1  0.501243  0.002743  -0.001937  1
  P  P26  1  0.000198  0.500289  -0.000577  1
  P  P27  1  0.499809  0.500286  0.500580  1
  S  S28  1  0.117829  0.114179  0.383908  1
  S  S29  1  0.385082  0.885813  0.886441  1
  S  S30  1  0.884035  0.111530  0.617351  1
  S  S31  1  0.613511  0.884165  0.115131  1
  S  S32  1  0.114917  0.885808  0.613566  1
  S  S33  1  0.382174  0.114181  0.116101  1
  S  S34  1  0.886495  0.884167  0.384870  1
  S  S35  1  0.615963  0.111530  0.882653  1
  S  S36  1  0.885386  0.616505  0.114620  1
  S  S37  1  0.885675  0.384472  0.884343  1
  S  S38  1  0.116188  0.385088  0.114860  1
  S  S39  1  0.114546  0.615098  0.885388  1
  S  S40  1  0.614617  0.616502  0.385378  1
  S  S41  1  0.385456  0.615096  0.614611  1
  S  S42  1  0.614327  0.384465  0.615659  1
  S  S43  1  0.383816  0.385084  0.385143  1
  S  S44  1  0.250003  0.250583  0.750002  1
  S  S45  1  0.749989  0.743622  0.749995  1
  S  S46  1  0.250000  0.748976  0.250000  1
  Br  Br47  1  0.749999  0.250401  0.249999  1
  Br  Br48  1  0.000963  0.005491  0.009569  1
  Br  Br49  1  0.502540  0.495162  0.005875  1
  Br  Br50  1  0.499033  0.005490  0.490431  1
  Br  Br51  1  -0.002509  0.495172  0.494149  1
