# generated using pymatgen
data_Li23P4S19I5
_symmetry_space_group_name_H-M   'P 1'
_cell_length_a   10.03261645
_cell_length_b   10.29380178
_cell_length_c   10.29380178
_cell_angle_alpha   90.51588240
_cell_angle_beta   89.65501394
_cell_angle_gamma   89.65501394
_symmetry_Int_Tables_number   1
_chemical_formula_structural   Li23P4S19I5
_chemical_formula_sum   'Li23 P4 S19 I5'
_cell_volume   1062.99768469
_cell_formula_units_Z   1
loop_
 _symmetry_equiv_pos_site_id
 _symmetry_equiv_pos_as_xyz
  1  'x, y, z'
loop_
 _atom_site_type_symbol
 _atom_site_label
 _atom_site_symmetry_multiplicity
 _atom_site_fract_x
 _atom_site_fract_y
 _atom_site_fract_z
 _atom_site_occupancy
  I  I0  1  0.240273  0.255617  0.766264  1
  I  I1  1  0.754394  0.746772  0.746772  1
  I  I2  1  0.763621  0.245461  0.245461  1
  I  I3  1  0.240273  0.766264  0.255617  1
  I  I4  1  0.008894  0.004481  0.004481  1
  Li  Li5  1  0.981125  0.183875  0.827115  1
  Li  Li6  1  0.008394  0.820216  0.820216  1
  Li  Li7  1  0.015003  0.356387  0.356387  1
  Li  Li8  1  0.981125  0.827115  0.183875  1
  Li  Li9  1  0.660408  0.989531  0.333237  1
  Li  Li10  1  0.678926  0.989027  0.677133  1
  Li  Li11  1  0.327819  0.006492  0.323737  1
  Li  Li12  1  0.376441  0.901320  0.634855  1
  Li  Li13  1  0.376441  0.634855  0.901320  1
  Li  Li14  1  0.678926  0.677133  0.989027  1
  Li  Li15  1  0.327819  0.323737  0.006492  1
  Li  Li16  1  0.660408  0.333237  0.989531  1
  Li  Li17  1  0.840035  0.489522  0.681392  1
  Li  Li18  1  0.689061  0.500659  0.223645  1
  Li  Li19  1  0.153058  0.494247  0.683613  1
  Li  Li20  1  0.298943  0.514507  0.204164  1
  Li  Li21  1  0.298943  0.204164  0.514507  1
  Li  Li22  1  0.689061  0.223645  0.500659  1
  Li  Li23  1  0.153058  0.683613  0.494247  1
  Li  Li24  1  0.840035  0.681392  0.489522  1
  Li  Li25  1  0.498328  0.261030  0.261030  1
  Li  Li26  1  0.493620  0.705373  0.200978  1
  Li  Li27  1  0.493620  0.200978  0.705373  1
  P  P28  1  0.000092  0.008904  0.504310  1
  P  P29  1  0.504892  0.997647  0.997647  1
  P  P30  1  0.000092  0.504310  0.008904  1
  P  P31  1  0.489322  0.518035  0.518035  1
  S  S32  1  0.997208  0.516801  0.516801  1
  S  S33  1  0.500497  0.059530  0.505848  1
  S  S34  1  0.500497  0.505848  0.059530  1
  S  S35  1  0.114513  0.124693  0.386328  1
  S  S36  1  0.877602  0.893827  0.390559  1
  S  S37  1  0.876378  0.122170  0.620460  1
  S  S38  1  0.120744  0.893762  0.615748  1
  S  S39  1  0.384312  0.115677  0.115677  1
  S  S40  1  0.400520  0.878654  0.878654  1
  S  S41  1  0.622792  0.885144  0.118394  1
  S  S42  1  0.622792  0.118394  0.885144  1
  S  S43  1  0.114513  0.386328  0.124693  1
  S  S44  1  0.877602  0.390559  0.893827  1
  S  S45  1  0.120744  0.615748  0.893762  1
  S  S46  1  0.876378  0.620460  0.122170  1
  S  S47  1  0.364686  0.632450  0.632450  1
  S  S48  1  0.368857  0.402676  0.402676  1
  S  S49  1  0.606662  0.403134  0.634599  1
  S  S50  1  0.606662  0.634599  0.403134  1
