# generated using pymatgen
data_Li7GeS5I
_symmetry_space_group_name_H-M   'P 1'
_cell_length_a   10.49494610
_cell_length_b   10.39051344
_cell_length_c   10.39051344
_cell_angle_alpha   89.31953979
_cell_angle_beta   90.12992563
_cell_angle_gamma   90.12992563
_symmetry_Int_Tables_number   1
_chemical_formula_structural   Li7GeS5I
_chemical_formula_sum   'Li28 Ge4 S20 I4'
_cell_volume   1132.97778490
_cell_formula_units_Z   4
loop_
 _symmetry_equiv_pos_site_id
 _symmetry_equiv_pos_as_xyz
  1  'x, y, z'
loop_
 _atom_site_type_symbol
 _atom_site_label
 _atom_site_symmetry_multiplicity
 _atom_site_fract_x
 _atom_site_fract_y
 _atom_site_fract_z
 _atom_site_occupancy
  Li  Li0  1  0.028810  0.313628  0.778821  1
  Li  Li1  1  0.988359  0.721677  0.765229  1
  Li  Li2  1  0.988359  0.221677  0.265229  1
  Li  Li3  1  0.028810  0.813628  0.278821  1
  Li  Li4  1  0.741603  0.010172  0.229036  1
  Li  Li5  1  0.749923  0.981569  0.762490  1
  Li  Li6  1  0.280928  0.972386  0.220314  1
  Li  Li7  1  0.241603  0.729036  0.010172  1
  Li  Li8  1  0.780928  0.720314  0.972386  1
  Li  Li9  1  0.249923  0.262490  0.981569  1
  Li  Li10  1  0.741603  0.510172  0.729036  1
  Li  Li11  1  0.749923  0.481569  0.262490  1
  Li  Li12  1  0.280928  0.472386  0.720314  1
  Li  Li13  1  0.241603  0.229036  0.510172  1
  Li  Li14  1  0.780928  0.220314  0.472386  1
  Li  Li15  1  0.249923  0.762490  0.481569  1
  Li  Li16  1  0.528810  0.278821  0.313628  1
  Li  Li17  1  0.488359  0.765229  0.221677  1
  Li  Li18  1  0.488359  0.265229  0.721677  1
  Li  Li19  1  0.528810  0.778821  0.813628  1
  Li  Li20  1  0.321731  0.508624  0.298106  1
  Li  Li21  1  0.075480  0.562265  0.222472  1
  Li  Li22  1  0.575480  0.722472  0.562265  1
  Li  Li23  1  0.821731  0.798106  0.508624  1
  Li  Li24  1  0.575480  0.222472  0.062265  1
  Li  Li25  1  0.821731  0.298106  0.008624  1
  Li  Li26  1  0.321731  0.008624  0.798106  1
  Li  Li27  1  0.075480  0.062265  0.722472  1
  Ge  Ge28  1  0.011431  0.000514  0.995684  1
  Ge  Ge29  1  0.011431  0.500514  0.495684  1
  Ge  Ge30  1  0.511431  0.995684  0.500514  1
  Ge  Ge31  1  0.511431  0.495684  0.000514  1
  S  S32  1  0.134150  0.119837  0.121482  1
  S  S33  1  0.883703  0.873447  0.110458  1
  S  S34  1  0.899265  0.129729  0.861635  1
  S  S35  1  0.131757  0.880573  0.862769  1
  S  S36  1  0.134150  0.619837  0.621482  1
  S  S37  1  0.883703  0.373447  0.610458  1
  S  S38  1  0.899265  0.629729  0.361635  1
  S  S39  1  0.131757  0.380573  0.362769  1
  S  S40  1  0.634150  0.121482  0.619837  1
  S  S41  1  0.399265  0.861635  0.629729  1
  S  S42  1  0.383703  0.110458  0.373447  1
  S  S43  1  0.631757  0.862769  0.380573  1
  S  S44  1  0.634150  0.621482  0.119837  1
  S  S45  1  0.399265  0.361635  0.129729  1
  S  S46  1  0.383703  0.610458  0.873447  1
  S  S47  1  0.631757  0.362769  0.880573  1
  S  S48  1  0.250828  0.234539  0.746147  1
  S  S49  1  0.750828  0.746147  0.734539  1
  S  S50  1  0.750828  0.246147  0.234539  1
  S  S51  1  0.250828  0.734539  0.246147  1
  I  I52  1  0.002032  0.004835  0.474455  1
  I  I53  1  0.502032  0.974455  0.004835  1
  I  I54  1  0.002032  0.504835  0.974455  1
  I  I55  1  0.502032  0.474455  0.504835  1
