# generated using pymatgen
data_Li5P(S2I)2
_symmetry_space_group_name_H-M   'P 1'
_cell_length_a   10.25910345
_cell_length_b   10.65299872
_cell_length_c   10.35329362
_cell_angle_alpha   90.00000000
_cell_angle_beta   90.00000000
_cell_angle_gamma   90.11218155
_symmetry_Int_Tables_number   1
_chemical_formula_structural   Li5P(S2I)2
_chemical_formula_sum   'Li20 P4 S16 I8'
_cell_volume   1131.51152650
_cell_formula_units_Z   4
loop_
 _symmetry_equiv_pos_site_id
 _symmetry_equiv_pos_as_xyz
  1  'x, y, z'
loop_
 _atom_site_type_symbol
 _atom_site_label
 _atom_site_symmetry_multiplicity
 _atom_site_fract_x
 _atom_site_fract_y
 _atom_site_fract_z
 _atom_site_occupancy
  I  I1  1  0.245198  0.257111  0.743195  1
  I  I2  1  0.741297  0.740149  0.752685  1
  I  I3  1  0.754802  0.242889  0.243195  1
  I  I4  1  0.258703  0.759851  0.252685  1
  I  I5  1  0.009781  -0.027998  -0.008347  1
  I  I6  1  -0.009781  0.527998  0.491653  1
  I  I7  1  0.516557  0.023608  0.490179  1
  I  I8  1  0.483443  0.476392  -0.009821  1
  Li  Li9  1  -0.004766  0.184225  0.821756  1
  Li  Li10  1  -0.000081  0.793616  0.782596  1
  Li  Li11  1  0.004766  0.315775  0.321756  1
  Li  Li12  1  0.000081  0.706384  0.282596  1
  Li  Li13  1  0.698132  -0.009489  0.280570  1
  Li  Li14  1  0.677511  -0.013049  0.706765  1
  Li  Li15  1  0.187714  0.006591  0.205852  1
  Li  Li16  1  0.309675  0.012383  0.676040  1
  Li  Li17  1  0.229262  0.791225  -0.009999  1
  Li  Li18  1  0.788404  0.810169  0.006138  1
  Li  Li19  1  0.285356  0.287263  0.003125  1
  Li  Li20  1  0.812286  0.493409  0.705852  1
  Li  Li21  1  0.690325  0.487617  0.176040  1
  Li  Li22  1  0.301868  0.509489  0.780570  1
  Li  Li23  1  0.322489  0.513049  0.206765  1
  Li  Li24  1  0.714644  0.212737  0.503125  1
  Li  Li25  1  0.211596  0.689831  0.506138  1
  Li  Li26  1  0.770738  0.708775  0.490001  1
  Li  Li27  1  0.484255  0.213066  0.293845  1
  Li  Li28  1  0.515745  0.286934  0.793845  1
  P  P29  1  -0.002875  -0.002797  0.499511  1
  P  P30  1  0.498806  0.001434  -0.008185  1
  P  P31  1  0.002875  0.502797  -0.000489  1
  P  P32  1  0.501194  0.498566  0.491815  1
  S  S33  1  0.108191  0.117253  0.394016  1
  S  S34  1  0.880733  0.884073  0.382973  1
  S  S35  1  0.880288  0.096811  0.626622  1
  S  S36  1  0.121198  0.883763  0.606109  1
  S  S37  1  0.377563  0.110908  0.111080  1
  S  S38  1  0.390161  0.898514  0.864002  1
  S  S39  1  0.593995  0.878663  0.111388  1
  S  S40  1  0.627273  0.114678  0.894492  1
  S  S41  1  0.119712  0.403189  0.126622  1
  S  S42  1  0.891809  0.382747  0.894016  1
  S  S43  1  0.119267  0.615927  0.882973  1
  S  S44  1  0.878802  0.616237  0.106109  1
  S  S45  1  0.406005  0.621337  0.611388  1
  S  S46  1  0.372727  0.385322  0.394492  1
  S  S47  1  0.622437  0.389092  0.611080  1
  S  S48  1  0.609839  0.601486  0.364002  1
