# generated using pymatgen
data_Li7SiS5Br
_symmetry_space_group_name_H-M   'P 1'
_cell_length_a   10.21729571
_cell_length_b   10.20985307
_cell_length_c   10.09933401
_cell_angle_alpha   90.51350069
_cell_angle_beta   88.59455862
_cell_angle_gamma   89.42141027
_symmetry_Int_Tables_number   1
_chemical_formula_structural   Li7SiS5Br
_chemical_formula_sum   'Li28 Si4 S20 Br4'
_cell_volume   1053.11777696
_cell_formula_units_Z   4
loop_
 _symmetry_equiv_pos_site_id
 _symmetry_equiv_pos_as_xyz
  1  'x, y, z'
loop_
 _atom_site_type_symbol
 _atom_site_label
 _atom_site_symmetry_multiplicity
 _atom_site_fract_x
 _atom_site_fract_y
 _atom_site_fract_z
 _atom_site_occupancy
  Li  Li0  1  0.032236  0.301594  0.796566  1
  Li  Li1  1  0.999212  0.787522  0.688293  1
  Li  Li2  1  0.003881  0.278697  0.199718  1
  Li  Li3  1  0.013318  0.773189  0.302153  1
  Li  Li4  1  0.835908  0.994643  0.298830  1
  Li  Li5  1  0.692209  0.994714  0.819757  1
  Li  Li6  1  0.190059  0.990162  0.318231  1
  Li  Li7  1  0.338546  0.803029  0.017605  1
  Li  Li8  1  0.645269  0.837031  0.102310  1
  Li  Li9  1  0.209964  0.269322  0.978207  1
  Li  Li10  1  0.804637  0.497424  0.789047  1
  Li  Li11  1  0.854203  0.569242  0.133238  1
  Li  Li12  1  0.317640  0.457574  0.692808  1
  Li  Li13  1  0.230718  0.199149  0.518681  1
  Li  Li14  1  0.694765  0.317735  0.483811  1
  Li  Li15  1  0.213360  0.774497  0.511065  1
  Li  Li16  1  0.390742  0.344766  0.343455  1
  Li  Li17  1  0.516933  0.664614  0.337295  1
  Li  Li18  1  0.491217  0.220136  0.766745  1
  Li  Li19  1  0.513371  0.771570  0.795576  1
  Li  Li20  1  0.130054  0.601172  0.883476  1
  Li  Li21  1  0.186755  0.488615  0.169133  1
  Li  Li22  1  0.871792  0.106633  0.592269  1
  Li  Li23  1  0.796923  0.773871  0.498320  1
  Li  Li24  1  0.464277  0.120858  0.128925  1
  Li  Li25  1  0.811940  0.278586  0.998136  1
  Li  Li26  1  0.338001  0.999262  0.812326  1
  Li  Li27  1  0.105210  0.032609  0.709994  1
  Si  Si28  1  0.012703  0.970224  0.995420  1
  Si  Si29  1  0.012731  0.475530  0.496469  1
  Si  Si30  1  0.514417  0.986430  0.488067  1
  Si  Si31  1  0.506437  0.481053  0.001157  1
  S  S32  1  0.129212  0.089935  0.117075  1
  S  S33  1  0.891073  0.846958  0.113212  1
  S  S34  1  0.905260  0.092071  0.859862  1
  S  S35  1  0.142040  0.853742  0.869188  1
  S  S36  1  0.123954  0.590823  0.631855  1
  S  S37  1  0.891098  0.350016  0.615099  1
  S  S38  1  0.890490  0.591275  0.376450  1
  S  S39  1  0.142100  0.360199  0.372676  1
  S  S40  1  0.634849  0.109986  0.606890  1
  S  S41  1  0.396749  0.866957  0.612399  1
  S  S42  1  0.390074  0.103739  0.366679  1
  S  S43  1  0.637744  0.868716  0.359645  1
  S  S44  1  0.616960  0.600519  0.128216  1
  S  S45  1  0.382110  0.350608  0.110942  1
  S  S46  1  0.376657  0.598164  0.884894  1
  S  S47  1  0.632853  0.366294  0.875135  1
  S  S48  1  0.254440  0.219643  0.747116  1
  S  S49  1  0.016794  0.939448  0.492863  1
  S  S50  1  0.507662  0.958367  0.961417  1
  S  S51  1  0.009424  0.434599  0.003022  1
  Br  Br52  1  0.763042  0.739638  0.743867  1
  Br  Br53  1  0.764843  0.224532  0.245885  1
  Br  Br54  1  0.258616  0.729697  0.256712  1
  Br  Br55  1  0.502528  0.478404  0.507598  1
