# generated using pymatgen
data_Li7GeS5I
_symmetry_space_group_name_H-M   'P 1'
_cell_length_a   10.35142733
_cell_length_b   10.48321040
_cell_length_c   10.51159342
_cell_angle_alpha   90.60190806
_cell_angle_beta   90.21206096
_cell_angle_gamma   90.28239283
_symmetry_Int_Tables_number   1
_chemical_formula_structural   Li7GeS5I
_chemical_formula_sum   'Li28 Ge4 S20 I4'
_cell_volume   1140.59324577
_cell_formula_units_Z   4
loop_
 _symmetry_equiv_pos_site_id
 _symmetry_equiv_pos_as_xyz
  1  'x, y, z'
loop_
 _atom_site_type_symbol
 _atom_site_label
 _atom_site_symmetry_multiplicity
 _atom_site_fract_x
 _atom_site_fract_y
 _atom_site_fract_z
 _atom_site_occupancy
  Li  Li0  1  0.012560  0.297760  0.782041  1
  Li  Li1  1  0.010930  0.707710  0.801457  1
  Li  Li2  1  0.006390  0.284191  0.189946  1
  Li  Li3  1  0.969569  0.830281  0.309108  1
  Li  Li4  1  0.805516  0.040335  0.437651  1
  Li  Li5  1  0.781104  0.972162  0.724109  1
  Li  Li6  1  0.167510  0.027588  0.331367  1
  Li  Li7  1  0.323484  0.808229  0.993170  1
  Li  Li8  1  0.794092  0.697164  0.972024  1
  Li  Li9  1  0.232144  0.283266  0.968643  1
  Li  Li10  1  0.747964  0.513956  0.722135  1
  Li  Li11  1  0.703342  0.504778  0.279092  1
  Li  Li12  1  0.260783  0.483156  0.740887  1
  Li  Li13  1  0.243434  0.249165  0.515187  1
  Li  Li14  1  0.701630  0.298873  0.488700  1
  Li  Li15  1  0.205964  0.818675  0.529773  1
  Li  Li16  1  0.381558  0.099367  0.152431  1
  Li  Li17  1  0.550009  0.834331  0.174791  1
  Li  Li18  1  0.488107  0.278822  0.706711  1
  Li  Li19  1  0.546482  0.802658  0.826264  1
  Li  Li20  1  0.343939  0.480177  0.290567  1
  Li  Li21  1  0.064258  0.570567  0.221503  1
  Li  Li22  1  0.602969  0.738111  0.562425  1
  Li  Li23  1  0.913319  0.764243  0.557480  1
  Li  Li24  1  0.562550  0.218884  0.005108  1
  Li  Li25  1  0.739312  0.012422  0.023392  1
  Li  Li26  1  0.351541  0.025463  0.808889  1
  Li  Li27  1  0.082063  0.048007  0.697503  1
  Ge  Ge28  1  0.027680  0.991874  0.986769  1
  Ge  Ge29  1  0.008138  0.495329  0.490834  1
  Ge  Ge30  1  0.510382  0.998425  0.494526  1
  Ge  Ge31  1  0.510693  0.501094  0.982029  1
  S  S32  1  0.145359  0.120148  0.116132  1
  S  S33  1  0.897309  0.864341  0.097490  1
  S  S34  1  0.897357  0.111387  0.865875  1
  S  S35  1  0.156525  0.885733  0.853473  1
  S  S36  1  0.123933  0.622812  0.619046  1
  S  S37  1  0.886340  0.366338  0.605019  1
  S  S38  1  0.886968  0.620587  0.365499  1
  S  S39  1  0.137056  0.385939  0.355658  1
  S  S40  1  0.644147  0.122810  0.612363  1
  S  S41  1  0.411356  0.870052  0.633146  1
  S  S42  1  0.375443  0.118571  0.381527  1
  S  S43  1  0.645479  0.876489  0.380751  1
  S  S44  1  0.630003  0.627213  0.110130  1
  S  S45  1  0.400237  0.359937  0.103629  1
  S  S46  1  0.388367  0.628127  0.865428  1
  S  S47  1  0.632681  0.374173  0.859969  1
  S  S48  1  0.248984  0.243090  0.742269  1
  S  S49  1  0.770565  0.743676  0.743711  1
  S  S50  1  0.017518  0.961255  0.491070  1
  S  S51  1  0.507226  0.984106  0.995636  1
  I  I52  1  0.753286  0.234615  0.235642  1
  I  I53  1  0.262811  0.751652  0.251557  1
  I  I54  1  0.013765  0.487313  0.978425  1
  I  I55  1  0.517866  0.488350  0.495823  1
