# generated using pymatgen
data_Li7SnSe5Br
_symmetry_space_group_name_H-M   'P 1'
_cell_length_a   11.02765144
_cell_length_b   10.84869028
_cell_length_c   11.30188046
_cell_angle_alpha   90.88236976
_cell_angle_beta   90.87006958
_cell_angle_gamma   87.97241485
_symmetry_Int_Tables_number   1
_chemical_formula_structural   Li7SnSe5Br
_chemical_formula_sum   'Li28 Sn4 Se20 Br4'
_cell_volume   1350.95517274
_cell_formula_units_Z   4
loop_
 _symmetry_equiv_pos_site_id
 _symmetry_equiv_pos_as_xyz
  1  'x, y, z'
loop_
 _atom_site_type_symbol
 _atom_site_label
 _atom_site_symmetry_multiplicity
 _atom_site_fract_x
 _atom_site_fract_y
 _atom_site_fract_z
 _atom_site_occupancy
  Li  Li0  1  0.024411  0.288407  0.750912  1
  Li  Li1  1  0.993510  0.707087  0.780659  1
  Li  Li2  1  0.974971  0.209448  0.440927  1
  Li  Li3  1  0.023837  0.793578  0.267626  1
  Li  Li4  1  0.811732  0.002183  0.288017  1
  Li  Li5  1  0.710714  0.987197  0.756280  1
  Li  Li6  1  0.155881  0.070552  0.291556  1
  Li  Li7  1  0.278782  0.739530  0.996240  1
  Li  Li8  1  0.754681  0.755612  0.959129  1
  Li  Li9  1  0.237193  0.245308  0.967431  1
  Li  Li10  1  0.792473  0.501530  0.763333  1
  Li  Li11  1  0.699120  0.516180  0.275971  1
  Li  Li12  1  0.212972  0.472929  0.782574  1
  Li  Li13  1  0.269815  0.205423  0.521437  1
  Li  Li14  1  0.662715  0.341216  0.495110  1
  Li  Li15  1  0.195791  0.824031  0.498849  1
  Li  Li16  1  0.497599  0.297832  0.297022  1
  Li  Li17  1  0.494675  0.708242  0.285104  1
  Li  Li18  1  0.491829  0.225343  0.773426  1
  Li  Li19  1  0.528620  0.780401  0.787108  1
  Li  Li20  1  0.308697  0.490443  0.262084  1
  Li  Li21  1  0.316421  0.494298  0.526773  1
  Li  Li22  1  0.596806  0.694236  0.539285  1
  Li  Li23  1  0.847320  0.811669  0.508054  1
  Li  Li24  1  0.584367  0.197415  0.048497  1
  Li  Li25  1  0.887939  0.294761  0.987001  1
  Li  Li26  1  0.325576  0.003266  0.778335  1
  Li  Li27  1  0.049552  0.011250  0.679839  1
  Sn  Sn28  1  0.004894  0.006890  0.980996  1
  Sn  Sn29  1  0.007954  0.504498  0.480975  1
  Sn  Sn30  1  0.510657  -0.001273  0.481526  1
  Sn  Sn31  1  0.519887  0.493825  0.983973  1
  Se  Se32  1  0.076373  0.184767  0.109048  1
  Se  Se33  1  0.878894  0.871234  0.106191  1
  Se  Se34  1  0.888757  0.117556  0.813527  1
  Se  Se35  1  0.151186  0.871785  0.855169  1
  Se  Se36  1  0.143250  0.631448  0.617427  1
  Se  Se37  1  0.872568  0.357725  0.588996  1
  Se  Se38  1  0.883182  0.637428  0.344458  1
  Se  Se39  1  0.162562  0.355671  0.382781  1
  Se  Se40  1  0.625582  0.149084  0.608821  1
  Se  Se41  1  0.394967  0.849182  0.608322  1
  Se  Se42  1  0.372822  0.112548  0.336660  1
  Se  Se43  1  0.657937  0.852429  0.374781  1
  Se  Se44  1  0.624247  0.654864  0.107639  1
  Se  Se45  1  0.392413  0.344169  0.099858  1
  Se  Se46  1  0.384697  0.610032  0.836873  1
  Se  Se47  1  0.668801  0.341852  0.883570  1
  Se  Se48  1  0.253919  0.234238  0.742231  1
  Se  Se49  1  0.757845  0.742876  0.729352  1
  Se  Se50  1  0.019912  0.976986  0.446734  1
  Se  Se51  1  0.510410  0.505224  0.414907  1
  Br  Br52  1  0.723861  0.239883  0.250350  1
  Br  Br53  1  0.256346  0.725577  0.225238  1
  Br  Br54  1  0.524343  0.002859  0.911278  1
  Br  Br55  1  0.003738  0.483054  0.895519  1
