# generated using pymatgen
data_Li7SiSe5Cl
_symmetry_space_group_name_H-M   'P 1'
_cell_length_a   10.70919530
_cell_length_b   10.55650044
_cell_length_c   10.55650044
_cell_angle_alpha   87.39887486
_cell_angle_beta   90.03262911
_cell_angle_gamma   90.03262911
_symmetry_Int_Tables_number   1
_chemical_formula_structural   Li7SiSe5Cl
_chemical_formula_sum   'Li28 Si4 Se20 Cl4'
_cell_volume   1192.19954239
_cell_formula_units_Z   4
loop_
 _symmetry_equiv_pos_site_id
 _symmetry_equiv_pos_as_xyz
  1  'x, y, z'
loop_
 _atom_site_type_symbol
 _atom_site_label
 _atom_site_symmetry_multiplicity
 _atom_site_fract_x
 _atom_site_fract_y
 _atom_site_fract_z
 _atom_site_occupancy
  Li  Li0  1  0.060066  0.304323  0.779508  1
  Li  Li1  1  0.830425  0.953597  0.627047  1
  Li  Li2  1  0.830425  0.453597  0.127047  1
  Li  Li3  1  0.060066  0.804323  0.279508  1
  Li  Li4  1  0.843719  0.996582  0.297194  1
  Li  Li5  1  0.675494  0.097933  0.814126  1
  Li  Li6  1  0.152463  0.093673  0.346540  1
  Li  Li7  1  0.343719  0.797194  0.996582  1
  Li  Li8  1  0.652463  0.846540  0.093673  1
  Li  Li9  1  0.175494  0.314126  0.097933  1
  Li  Li10  1  0.843719  0.496582  0.797194  1
  Li  Li11  1  0.675494  0.597933  0.314126  1
  Li  Li12  1  0.152463  0.593673  0.846540  1
  Li  Li13  1  0.343719  0.297194  0.496582  1
  Li  Li14  1  0.652463  0.346540  0.593673  1
  Li  Li15  1  0.175494  0.814126  0.597933  1
  Li  Li16  1  0.560066  0.279508  0.304323  1
  Li  Li17  1  0.330425  0.627047  0.453597  1
  Li  Li18  1  0.330425  0.127047  0.953597  1
  Li  Li19  1  0.560066  0.779508  0.804323  1
  Li  Li20  1  0.432676  0.531625  0.215431  1
  Li  Li21  1  0.098067  0.544256  0.180706  1
  Li  Li22  1  0.598067  0.680706  0.544256  1
  Li  Li23  1  0.932676  0.715431  0.531625  1
  Li  Li24  1  0.598067  0.180706  0.044256  1
  Li  Li25  1  0.932676  0.215431  0.031625  1
  Li  Li26  1  0.432676  0.031625  0.715431  1
  Li  Li27  1  0.098067  0.044256  0.680706  1
  Si  Si28  1  0.019458  0.955255  0.968396  1
  Si  Si29  1  0.019458  0.455255  0.468396  1
  Si  Si30  1  0.519458  0.968396  0.455255  1
  Si  Si31  1  0.519458  0.468396  0.955255  1
  Se  Se32  1  0.140901  0.077611  0.095460  1
  Se  Se33  1  0.895378  0.844158  0.104118  1
  Se  Se34  1  0.914722  0.089876  0.826336  1
  Se  Se35  1  0.155146  0.844486  0.847136  1
  Se  Se36  1  0.140901  0.577611  0.595460  1
  Se  Se37  1  0.895378  0.344158  0.604118  1
  Se  Se38  1  0.914722  0.589876  0.326336  1
  Se  Se39  1  0.155146  0.344486  0.347136  1
  Se  Se40  1  0.640901  0.095460  0.577611  1
  Se  Se41  1  0.414722  0.826336  0.589876  1
  Se  Se42  1  0.395378  0.104118  0.344158  1
  Se  Se43  1  0.655146  0.847136  0.344486  1
  Se  Se44  1  0.640901  0.595460  0.077611  1
  Se  Se45  1  0.414722  0.326336  0.089876  1
  Se  Se46  1  0.395378  0.604118  0.844158  1
  Se  Se47  1  0.655146  0.347136  0.844486  1
  Se  Se48  1  0.016526  0.941080  0.475660  1
  Se  Se49  1  0.516526  0.975660  0.941080  1
  Se  Se50  1  0.016526  0.441080  0.975660  1
  Se  Se51  1  0.516526  0.475660  0.441080  1
  Cl  Cl52  1  0.264959  0.192064  0.718713  1
  Cl  Cl53  1  0.764959  0.718713  0.692064  1
  Cl  Cl54  1  0.764959  0.218713  0.192064  1
  Cl  Cl55  1  0.264959  0.692064  0.218713  1
