# generated using pymatgen
data_Li23P4S19Br5
_symmetry_space_group_name_H-M   'P 1'
_cell_length_a   9.92692382
_cell_length_b   10.12422958
_cell_length_c   10.12422958
_cell_angle_alpha   90.11952017
_cell_angle_beta   89.52178810
_cell_angle_gamma   89.52178810
_symmetry_Int_Tables_number   1
_chemical_formula_structural   Li23P4S19Br5
_chemical_formula_sum   'Li23 P4 S19 Br5'
_cell_volume   1017.43669146
_cell_formula_units_Z   1
loop_
 _symmetry_equiv_pos_site_id
 _symmetry_equiv_pos_as_xyz
  1  'x, y, z'
loop_
 _atom_site_type_symbol
 _atom_site_label
 _atom_site_symmetry_multiplicity
 _atom_site_fract_x
 _atom_site_fract_y
 _atom_site_fract_z
 _atom_site_occupancy
  Br  Br0  1  0.244052  0.258014  0.763189  1
  Br  Br1  1  0.769220  0.744397  0.744397  1
  Br  Br2  1  0.744078  0.260717  0.260717  1
  Br  Br3  1  0.244052  0.763189  0.258014  1
  Br  Br4  1  0.015200  -0.016337  -0.016337  1
  Li  Li5  1  0.003134  0.170798  0.833076  1
  Li  Li6  1  0.004627  0.813016  0.813016  1
  Li  Li7  1  -0.002211  0.350476  0.350476  1
  Li  Li8  1  0.003134  0.833076  0.170798  1
  Li  Li9  1  0.663375  -0.003204  0.339801  1
  Li  Li10  1  0.676271  0.975983  0.693847  1
  Li  Li11  1  0.322006  -0.003162  0.324276  1
  Li  Li12  1  0.375148  -0.100951  0.631701  1
  Li  Li13  1  0.375148  0.631701  -0.100951  1
  Li  Li14  1  0.676271  0.693847  0.975983  1
  Li  Li15  1  0.322006  0.324276  -0.003162  1
  Li  Li16  1  0.663375  0.339801  -0.003204  1
  Li  Li17  1  0.838880  0.495813  0.688292  1
  Li  Li18  1  0.690321  0.505806  0.228711  1
  Li  Li19  1  0.153701  0.481680  0.678050  1
  Li  Li20  1  0.291539  0.521315  0.205374  1
  Li  Li21  1  0.291539  0.205374  0.521315  1
  Li  Li22  1  0.690321  0.228711  0.505806  1
  Li  Li23  1  0.153701  0.678050  0.481680  1
  Li  Li24  1  0.838880  0.688292  0.495813  1
  Li  Li25  1  0.493160  0.261491  0.261491  1
  Li  Li26  1  0.486036  0.710796  0.203668  1
  Li  Li27  1  0.486036  0.203668  0.710796  1
  P  P28  1  -0.000511  0.007767  0.500523  1
  P  P29  1  0.509125  0.000588  0.000588  1
  P  P30  1  -0.000511  0.500523  0.007767  1
  P  P31  1  0.487772  0.523139  0.523139  1
  S  S32  1  0.113514  0.128363  0.381727  1
  S  S33  1  0.881397  0.893720  0.379043  1
  S  S34  1  0.876076  0.115436  0.625389  1
  S  S35  1  0.124097  0.888220  0.609076  1
  S  S36  1  0.373572  0.111820  0.111820  1
  S  S37  1  0.428818  0.870030  0.870030  1
  S  S38  1  0.626330  0.890327  0.127681  1
  S  S39  1  0.626330  0.127681  0.890327  1
  S  S40  1  0.113514  0.381727  0.128363  1
  S  S41  1  0.881397  0.379043  0.893720  1
  S  S42  1  0.124097  0.609076  0.888220  1
  S  S43  1  0.876076  0.625389  0.115436  1
  S  S44  1  0.357912  0.637103  0.637103  1
  S  S45  1  0.365730  0.407262  0.407262  1
  S  S46  1  0.605176  0.408024  0.644255  1
  S  S47  1  0.605176  0.644255  0.408024  1
  S  S48  1  -0.007957  0.513544  0.513544  1
  S  S49  1  0.498195  0.062967  0.507363  1
  S  S50  1  0.498195  0.507363  0.062967  1
