# generated using pymatgen
data_Li7SiS5Cl
_symmetry_space_group_name_H-M   'P 1'
_cell_length_a   10.10596134
_cell_length_b   10.03623836
_cell_length_c   10.44092820
_cell_angle_alpha   90.97199199
_cell_angle_beta   91.13724935
_cell_angle_gamma   87.57751958
_symmetry_Int_Tables_number   1
_chemical_formula_structural   Li7SiS5Cl
_chemical_formula_sum   'Li28 Si4 S20 Cl4'
_cell_volume   1057.68725279
_cell_formula_units_Z   4
loop_
 _symmetry_equiv_pos_site_id
 _symmetry_equiv_pos_as_xyz
  1  'x, y, z'
loop_
 _atom_site_type_symbol
 _atom_site_label
 _atom_site_symmetry_multiplicity
 _atom_site_fract_x
 _atom_site_fract_y
 _atom_site_fract_z
 _atom_site_occupancy
  Li  Li0  1  0.006146  0.285195  0.750195  1
  Li  Li1  1  0.996910  0.715395  0.798959  1
  Li  Li2  1  0.981226  0.205692  0.321716  1
  Li  Li3  1  0.012608  0.778354  0.261011  1
  Li  Li4  1  0.807554  0.999027  0.283328  1
  Li  Li5  1  0.710524  0.980538  0.765942  1
  Li  Li6  1  0.193657  0.001507  0.276708  1
  Li  Li7  1  0.369810  0.779616  0.975892  1
  Li  Li8  1  0.706133  0.782232  0.965462  1
  Li  Li9  1  0.222930  0.246054  0.961364  1
  Li  Li10  1  0.803550  0.507983  0.792404  1
  Li  Li11  1  0.683640  0.538903  0.272574  1
  Li  Li12  1  0.197239  0.472699  0.780870  1
  Li  Li13  1  0.197843  0.183543  0.502319  1
  Li  Li14  1  0.679751  0.301434  0.484625  1
  Li  Li15  1  0.177037  0.816676  0.491388  1
  Li  Li16  1  0.485258  0.303429  0.294947  1
  Li  Li17  1  0.465020  0.735663  0.407501  1
  Li  Li18  1  0.471411  0.324927  0.729510  1
  Li  Li19  1  0.529734  0.726893  0.711901  1
  Li  Li20  1  0.374205  0.548861  0.229260  1
  Li  Li21  1  0.295751  0.475095  0.511084  1
  Li  Li22  1  0.719994  0.594000  0.540473  1
  Li  Li23  1  0.846050  0.840186  0.521435  1
  Li  Li24  1  0.574896  0.186838  0.037611  1
  Li  Li25  1  0.890556  0.278950  0.007501  1
  Li  Li26  1  0.395031  0.048646  0.753496  1
  Li  Li27  1  0.091724  0.022222  0.703215  1
  Si  Si28  1  0.008045  0.991189  0.985000  1
  Si  Si29  1  0.999788  0.503267  0.484261  1
  Si  Si30  1  0.502252  0.007595  0.487300  1
  Si  Si31  1  0.511071  0.484044  0.977325  1
  S  S32  1  0.086068  0.141684  0.109921  1
  S  S33  1  0.881242  0.873068  0.092212  1
  S  S34  1  0.898249  0.099399  0.838746  1
  S  S35  1  0.155410  0.873485  0.885390  1
  S  S36  1  0.121763  0.620460  0.609763  1
  S  S37  1  0.866604  0.389446  0.591538  1
  S  S38  1  0.876105  0.634624  0.371437  1
  S  S39  1  0.129412  0.381040  0.371840  1
  S  S40  1  0.594803  0.136159  0.624036  1
  S  S41  1  0.383007  0.873259  0.593109  1
  S  S42  1  0.377146  0.117300  0.359202  1
  S  S43  1  0.642097  0.882217  0.389449  1
  S  S44  1  0.564014  0.646415  0.098538  1
  S  S45  1  0.391408  0.355623  0.085840  1
  S  S46  1  0.401562  0.571993  0.821182  1
  S  S47  1  0.663495  0.355327  0.901102  1
  S  S48  1  0.239888  0.236659  0.729373  1
  S  S49  1  0.761470  0.739505  0.734756  1
  S  S50  1  0.020005  0.996397  0.446082  1
  S  S51  1  0.516569  0.498259  0.433273  1
  Cl  Cl52  1  0.735899  0.239502  0.251660  1
  Cl  Cl53  1  0.250619  0.755647  0.268030  1
  Cl  Cl54  1  0.527189  0.973681  0.936382  1
  Cl  Cl55  1  0.008634  0.467980  0.916340  1
