# generated using pymatgen
data_Li7SiSe5Cl
_symmetry_space_group_name_H-M   'P 1'
_cell_length_a   10.55031008
_cell_length_b   10.58795962
_cell_length_c   10.89755213
_cell_angle_alpha   90.07573055
_cell_angle_beta   90.68595735
_cell_angle_gamma   87.55848753
_symmetry_Int_Tables_number   1
_chemical_formula_structural   Li7SiSe5Cl
_chemical_formula_sum   'Li28 Si4 Se20 Cl4'
_cell_volume   1216.13214368
_cell_formula_units_Z   4
loop_
 _symmetry_equiv_pos_site_id
 _symmetry_equiv_pos_as_xyz
  1  'x, y, z'
loop_
 _atom_site_type_symbol
 _atom_site_label
 _atom_site_symmetry_multiplicity
 _atom_site_fract_x
 _atom_site_fract_y
 _atom_site_fract_z
 _atom_site_occupancy
  Li  Li0  1  0.015400  0.291472  0.746923  1
  Li  Li1  1  0.995467  0.709883  0.805088  1
  Li  Li2  1  0.981031  0.203435  0.321284  1
  Li  Li3  1  0.018020  0.778919  0.257368  1
  Li  Li4  1  0.810002  0.003061  0.288885  1
  Li  Li5  1  0.716061  0.977153  0.760270  1
  Li  Li6  1  0.196194  0.991466  0.272518  1
  Li  Li7  1  0.379902  0.782411  0.965798  1
  Li  Li8  1  0.706261  0.785637  0.958219  1
  Li  Li9  1  0.239392  0.231558  0.952807  1
  Li  Li10  1  0.803643  0.499773  0.794144  1
  Li  Li11  1  0.674316  0.539424  0.277654  1
  Li  Li12  1  0.198156  0.477324  0.801913  1
  Li  Li13  1  0.208289  0.164805  0.493198  1
  Li  Li14  1  0.670445  0.300580  0.456643  1
  Li  Li15  1  0.175089  0.807406  0.482358  1
  Li  Li16  1  0.381633  0.338982  0.325030  1
  Li  Li17  1  0.457568  0.733647  0.422557  1
  Li  Li18  1  0.487508  0.331574  0.727915  1
  Li  Li19  1  0.531665  0.765842  0.733163  1
  Li  Li20  1  0.378039  0.575080  0.225365  1
  Li  Li21  1  0.290442  0.452546  0.550616  1
  Li  Li22  1  0.713928  0.592082  0.543097  1
  Li  Li23  1  0.853966  0.827173  0.521760  1
  Li  Li24  1  0.574070  0.229286  0.113402  1
  Li  Li25  1  0.900739  0.279495  0.002080  1
  Li  Li26  1  0.410836  0.057874  0.744154  1
  Li  Li27  1  0.092306  0.014879  0.695391  1
  Si  Si28  1  0.008548  0.991765  0.982190  1
  Si  Si29  1  0.999275  0.497850  0.486938  1
  Si  Si30  1  0.506722  0.005367  0.478253  1
  Si  Si31  1  0.508153  0.489311  0.977088  1
  Se  Se32  1  0.093463  0.142903  0.106839  1
  Se  Se33  1  0.874873  0.875409  0.094604  1
  Se  Se34  1  0.900736  0.103841  0.829537  1
  Se  Se35  1  0.157736  0.867558  0.882482  1
  Se  Se36  1  0.120120  0.618540  0.615077  1
  Se  Se37  1  0.858482  0.378263  0.589102  1
  Se  Se38  1  0.878088  0.628704  0.362657  1
  Se  Se39  1  0.137296  0.372332  0.374650  1
  Se  Se40  1  0.604584  0.136885  0.613519  1
  Se  Se41  1  0.371845  0.882957  0.591136  1
  Se  Se42  1  0.391722  0.108562  0.327933  1
  Se  Se43  1  0.647589  0.866706  0.389010  1
  Se  Se44  1  0.567616  0.653334  0.098771  1
  Se  Se45  1  0.367594  0.375690  0.089027  1
  Se  Se46  1  0.408369  0.578970  0.809076  1
  Se  Se47  1  0.659111  0.343468  0.912593  1
  Se  Se48  1  0.252327  0.247283  0.720328  1
  Se  Se49  1  0.767321  0.734355  0.732477  1
  Se  Se50  1  0.021958  0.993051  0.445388  1
  Se  Se51  1  0.505789  0.496839  0.438270  1
  Cl  Cl52  1  0.753313  0.232288  0.257041  1
  Cl  Cl53  1  0.247403  0.758273  0.273749  1
  Cl  Cl54  1  0.527543  0.941400  0.901460  1
  Cl  Cl55  1  0.002057  0.461109  0.906987  1
