# generated using pymatgen
data_Li7SnS5I
_symmetry_space_group_name_H-M   'P 1'
_cell_length_a   10.67314295
_cell_length_b   10.72386602
_cell_length_c   10.57016636
_cell_angle_alpha   89.56532434
_cell_angle_beta   89.91676937
_cell_angle_gamma   88.87868859
_symmetry_Int_Tables_number   1
_chemical_formula_structural   Li7SnS5I
_chemical_formula_sum   'Li28 Sn4 S20 I4'
_cell_volume   1209.56576563
_cell_formula_units_Z   4
loop_
 _symmetry_equiv_pos_site_id
 _symmetry_equiv_pos_as_xyz
  1  'x, y, z'
loop_
 _atom_site_type_symbol
 _atom_site_label
 _atom_site_symmetry_multiplicity
 _atom_site_fract_x
 _atom_site_fract_y
 _atom_site_fract_z
 _atom_site_occupancy
  Li  Li0  1  0.036971  0.288970  0.775281  1
  Li  Li1  1  0.988795  0.714144  0.769039  1
  Li  Li2  1  0.984189  0.229665  0.264203  1
  Li  Li3  1  0.998956  0.814385  0.296323  1
  Li  Li4  1  0.776644  0.013871  0.255867  1
  Li  Li5  1  0.729225  0.980312  0.781707  1
  Li  Li6  1  0.185556  0.021813  0.319934  1
  Li  Li7  1  0.258413  0.748343  0.969499  1
  Li  Li8  1  0.781724  0.722111  0.970733  1
  Li  Li9  1  0.263538  0.247452  0.982387  1
  Li  Li10  1  0.753046  0.507972  0.739712  1
  Li  Li11  1  0.735325  0.480469  0.275808  1
  Li  Li12  1  0.267264  0.470458  0.744963  1
  Li  Li13  1  0.253272  0.245490  0.519666  1
  Li  Li14  1  0.765204  0.240330  0.478961  1
  Li  Li15  1  0.187083  0.819685  0.543357  1
  Li  Li16  1  0.531867  0.272098  0.306261  1
  Li  Li17  1  0.533218  0.802181  0.195614  1
  Li  Li18  1  0.496273  0.267862  0.726737  1
  Li  Li19  1  0.533874  0.776495  0.799744  1
  Li  Li20  1  0.327016  0.475312  0.303878  1
  Li  Li21  1  0.050721  0.539022  0.214850  1
  Li  Li22  1  0.588561  0.720046  0.546801  1
  Li  Li23  1  0.842512  0.819505  0.510331  1
  Li  Li24  1  0.586275  0.215440  0.056984  1
  Li  Li25  1  0.829067  0.294063  0.002946  1
  Li  Li26  1  0.311615  0.013943  0.775941  1
  Li  Li27  1  0.017060  0.019786  0.678218  1
  Sn  Sn28  1  0.011987  0.000310  0.992041  1
  Sn  Sn29  1  0.010483  0.500104  0.501180  1
  Sn  Sn30  1  0.511927  0.000854  0.499793  1
  Sn  Sn31  1  0.517363  0.496332  0.000033  1
  S  S32  1  0.133194  0.130514  0.124876  1
  S  S33  1  0.878550  0.867752  0.111774  1
  S  S34  1  0.891395  0.128366  0.846735  1
  S  S35  1  0.133577  0.880398  0.838192  1
  S  S36  1  0.141997  0.619828  0.632471  1
  S  S37  1  0.883827  0.363215  0.622056  1
  S  S38  1  0.889446  0.627039  0.355611  1
  S  S39  1  0.134927  0.371448  0.357034  1
  S  S40  1  0.642624  0.125861  0.628224  1
  S  S41  1  0.399612  0.852952  0.627480  1
  S  S42  1  0.375463  0.126027  0.370777  1
  S  S43  1  0.650182  0.866249  0.376335  1
  S  S44  1  0.648082  0.625433  0.123700  1
  S  S45  1  0.403721  0.348883  0.129094  1
  S  S46  1  0.391314  0.615363  0.855170  1
  S  S47  1  0.645682  0.353595  0.877109  1
  S  S48  1  0.264729  0.243041  0.749376  1
  S  S49  1  0.756554  0.745464  0.733842  1
  S  S50  1  0.754516  0.244438  0.237013  1
  S  S51  1  0.021882  0.958892  0.464282  1
  I  I52  1  0.258743  0.729805  0.233051  1
  I  I53  1  0.509295  0.975929  0.980666  1
  I  I54  1  0.002029  0.495111  0.965767  1
  I  I55  1  0.523635  0.471356  0.486352  1
