# generated using pymatgen
data_Li21P4S17I7
_symmetry_space_group_name_H-M   'P 1'
_cell_length_a   10.63122407
_cell_length_b   10.17636854
_cell_length_c   10.37101879
_cell_angle_alpha   89.45321701
_cell_angle_beta   90.04952000
_cell_angle_gamma   89.83894903
_symmetry_Int_Tables_number   1
_chemical_formula_structural   Li21P4S17I7
_chemical_formula_sum   'Li21 P4 S17 I7'
_cell_volume   1121.95607650
_cell_formula_units_Z   1
loop_
 _symmetry_equiv_pos_site_id
 _symmetry_equiv_pos_as_xyz
  1  'x, y, z'
loop_
 _atom_site_type_symbol
 _atom_site_label
 _atom_site_symmetry_multiplicity
 _atom_site_fract_x
 _atom_site_fract_y
 _atom_site_fract_z
 _atom_site_occupancy
  I  I0  1  0.273735  0.279966  0.761860  1
  I  I1  1  0.760169  0.755840  0.745489  1
  I  I2  1  0.754649  0.237748  0.242737  1
  I  I3  1  0.258339  0.754680  0.256391  1
  I  I4  1  0.018262  0.005125  0.007237  1
  I  I5  1  0.022326  0.519029  0.516772  1
  I  I6  1  0.523076  0.011455  0.497059  1
  Li  Li7  1  0.027016  0.307884  0.698602  1
  Li  Li8  1  0.012900  0.698899  0.732070  1
  Li  Li9  1  0.004065  0.193267  0.209727  1
  Li  Li10  1  0.001736  0.813569  0.203609  1
  Li  Li11  1  0.698290  0.977935  0.300181  1
  Li  Li12  1  0.820667  0.008578  0.813169  1
  Li  Li13  1  0.319352  0.016764  0.326101  1
  Li  Li14  1  0.214845  0.821238  0.990224  1
  Li  Li15  1  0.712642  0.666514  0.985866  1
  Li  Li16  1  0.219454  0.197270  -0.003297  1
  Li  Li17  1  0.702234  0.332775  0.971891  1
  Li  Li18  1  0.442911  0.488802  0.827624  1
  Li  Li19  1  0.716113  0.499311  0.206646  1
  Li  Li20  1  0.199166  0.483323  0.320428  1
  Li  Li21  1  0.721517  0.221793  0.502190  1
  Li  Li22  1  0.216215  0.712878  0.519348  1
  Li  Li23  1  0.810824  0.681585  0.494916  1
  Li  Li24  1  0.483870  0.336128  0.171518  1
  Li  Li25  1  0.499205  0.672703  0.172969  1
  Li  Li26  1  0.498456  0.194391  0.694192  1
  Li  Li27  1  0.512140  0.816492  0.686063  1
  P  P28  1  0.008746  -0.000026  0.507663  1
  P  P29  1  0.512390  -0.000549  0.996640  1
  P  P30  1  0.018536  0.501032  0.009640  1
  P  P31  1  0.509311  0.502271  0.498528  1
  S  S32  1  0.560383  0.501216  0.030665  1
  S  S33  1  0.120173  0.116485  0.394539  1
  S  S34  1  0.891517  0.883351  0.394143  1
  S  S35  1  0.895576  0.122901  0.618627  1
  S  S36  1  0.117612  0.890729  0.630321  1
  S  S37  1  0.401780  0.113621  0.118155  1
  S  S38  1  0.399787  0.894456  0.877227  1
  S  S39  1  0.623972  0.874564  0.105987  1
  S  S40  1  0.625567  0.120783  0.883710  1
  S  S41  1  0.126220  0.377613  0.128692  1
  S  S42  1  0.910554  0.393379  0.887947  1
  S  S43  1  0.140668  0.615591  0.905547  1
  S  S44  1  0.902081  0.614955  0.125112  1
  S  S45  1  0.402104  0.618977  0.620047  1
  S  S46  1  0.397311  0.386343  0.387713  1
  S  S47  1  0.621354  0.393759  0.621985  1
  S  S48  1  0.620185  0.622607  0.381937  1
