# generated using pymatgen
data_Li7SbSe6
_symmetry_space_group_name_H-M   'P 1'
_cell_length_a   11.04036962
_cell_length_b   10.86580372
_cell_length_c   10.86580372
_cell_angle_alpha   91.87446145
_cell_angle_beta   88.22029333
_cell_angle_gamma   88.22029333
_symmetry_Int_Tables_number   1
_chemical_formula_structural   Li7SbSe6
_chemical_formula_sum   'Li28 Sb4 Se24'
_cell_volume   1301.49164905
_cell_formula_units_Z   4
loop_
 _symmetry_equiv_pos_site_id
 _symmetry_equiv_pos_as_xyz
  1  'x, y, z'
loop_
 _atom_site_type_symbol
 _atom_site_label
 _atom_site_symmetry_multiplicity
 _atom_site_fract_x
 _atom_site_fract_y
 _atom_site_fract_z
 _atom_site_occupancy
  Li  Li0  1  0.023625  0.295659  0.795369  1
  Li  Li1  1  0.986384  0.805399  0.698422  1
  Li  Li2  1  0.986384  0.305399  0.198422  1
  Li  Li3  1  0.023625  0.795659  0.295369  1
  Li  Li4  1  0.809628  0.026369  0.277244  1
  Li  Li5  1  0.703500  0.988165  0.771518  1
  Li  Li6  1  0.201708  0.967654  0.316956  1
  Li  Li7  1  0.309628  0.777244  0.026369  1
  Li  Li8  1  0.701708  0.816956  0.967654  1
  Li  Li9  1  0.203500  0.271518  0.988165  1
  Li  Li10  1  0.809628  0.526369  0.777244  1
  Li  Li11  1  0.703500  0.488165  0.271518  1
  Li  Li12  1  0.201708  0.467654  0.816956  1
  Li  Li13  1  0.309628  0.277244  0.526369  1
  Li  Li14  1  0.701708  0.316956  0.467654  1
  Li  Li15  1  0.203500  0.771518  0.488165  1
  Li  Li16  1  0.523625  0.295369  0.295659  1
  Li  Li17  1  0.486384  0.698422  0.305399  1
  Li  Li18  1  0.486384  0.198422  0.805399  1
  Li  Li19  1  0.523625  0.795369  0.795659  1
  Li  Li20  1  0.331264  0.505570  0.309514  1
  Li  Li21  1  0.094020  0.563168  0.166728  1
  Li  Li22  1  0.594020  0.666728  0.563168  1
  Li  Li23  1  0.831264  0.809514  0.505570  1
  Li  Li24  1  0.594020  0.166728  0.063168  1
  Li  Li25  1  0.831264  0.309514  0.005570  1
  Li  Li26  1  0.331264  0.005570  0.809514  1
  Li  Li27  1  0.094020  0.063168  0.666728  1
  Sb  Sb28  1  0.013264  -0.009274  -0.005835  1
  Sb  Sb29  1  0.013264  0.490726  0.494165  1
  Sb  Sb30  1  0.513264  -0.005835  0.490726  1
  Sb  Sb31  1  0.513264  0.494165  -0.009274  1
  Se  Se32  1  0.125120  0.116165  0.148263  1
  Se  Se33  1  0.879711  0.852784  0.113014  1
  Se  Se34  1  0.895997  0.107229  0.835794  1
  Se  Se35  1  0.159919  0.863046  0.859304  1
  Se  Se36  1  0.125120  0.616165  0.648263  1
  Se  Se37  1  0.879711  0.352784  0.613014  1
  Se  Se38  1  0.895997  0.607229  0.335794  1
  Se  Se39  1  0.159919  0.363046  0.359304  1
  Se  Se40  1  0.625120  0.148263  0.616165  1
  Se  Se41  1  0.395997  0.835794  0.607229  1
  Se  Se42  1  0.379711  0.113014  0.352784  1
  Se  Se43  1  0.659919  0.859304  0.363046  1
  Se  Se44  1  0.625120  0.648263  0.116165  1
  Se  Se45  1  0.395997  0.335794  0.107229  1
  Se  Se46  1  0.379711  0.613014  0.852784  1
  Se  Se47  1  0.659919  0.359304  0.863046  1
  Se  Se48  1  0.250751  0.225709  0.748975  1
  Se  Se49  1  0.750751  0.748975  0.725709  1
  Se  Se50  1  0.750751  0.248975  0.225709  1
  Se  Se51  1  0.250751  0.725709  0.248975  1
  Se  Se52  1  0.025108  -0.068140  0.488122  1
  Se  Se53  1  0.525108  -0.011878  -0.068140  1
  Se  Se54  1  0.025108  0.431860  -0.011878  1
  Se  Se55  1  0.525108  0.488122  0.431860  1
