# generated using pymatgen
data_Li7SiSe5Cl
_symmetry_space_group_name_H-M   'P 1'
_cell_length_a   10.75234001
_cell_length_b   10.70271736
_cell_length_c   10.61753179
_cell_angle_alpha   92.96222878
_cell_angle_beta   89.04449746
_cell_angle_gamma   88.75660995
_symmetry_Int_Tables_number   1
_chemical_formula_structural   Li7SiSe5Cl
_chemical_formula_sum   'Li28 Si4 Se20 Cl4'
_cell_volume   1219.74389206
_cell_formula_units_Z   4
loop_
 _symmetry_equiv_pos_site_id
 _symmetry_equiv_pos_as_xyz
  1  'x, y, z'
loop_
 _atom_site_type_symbol
 _atom_site_label
 _atom_site_symmetry_multiplicity
 _atom_site_fract_x
 _atom_site_fract_y
 _atom_site_fract_z
 _atom_site_occupancy
  Li  Li0  1  0.003874  0.324999  0.808420  1
  Li  Li1  1  0.973079  0.734282  0.822627  1
  Li  Li2  1  0.003276  0.191047  0.309682  1
  Li  Li3  1  0.031809  0.811166  0.281264  1
  Li  Li4  1  0.803847  0.047927  0.444172  1
  Li  Li5  1  0.716670  0.994820  0.787523  1
  Li  Li6  1  0.216321  0.992889  0.298388  1
  Li  Li7  1  0.253367  0.764111  0.002310  1
  Li  Li8  1  0.721196  0.788475  0.966098  1
  Li  Li9  1  0.222992  0.304917  0.979824  1
  Li  Li10  1  0.756790  0.527803  0.712889  1
  Li  Li11  1  0.705041  0.516329  0.283971  1
  Li  Li12  1  0.219911  0.485675  0.771817  1
  Li  Li13  1  0.209408  0.200650  0.512076  1
  Li  Li14  1  0.703487  0.306752  0.473659  1
  Li  Li15  1  0.188331  0.842552  0.561118  1
  Li  Li16  1  0.390766  0.110993  0.117558  1
  Li  Li17  1  0.494163  0.819343  0.173156  1
  Li  Li18  1  0.470618  0.291981  0.707937  1
  Li  Li19  1  0.522965  0.797310  0.801129  1
  Li  Li20  1  0.400515  0.392014  0.340217  1
  Li  Li21  1  0.052645  0.493796  0.185453  1
  Li  Li22  1  0.603802  0.721735  0.529921  1
  Li  Li23  1  0.913708  0.781189  0.545163  1
  Li  Li24  1  0.606034  0.213441  0.987661  1
  Li  Li25  1  0.724857  0.007821  0.160795  1
  Li  Li26  1  0.348907  0.031591  0.798645  1
  Li  Li27  1  0.058006  0.073846  0.702660  1
  Si  Si28  1  0.022530  0.007708  0.981035  1
  Si  Si29  1  0.017990  0.498431  0.487967  1
  Si  Si30  1  0.519950  0.004574  0.481149  1
  Si  Si31  1  0.517630  0.500717  0.978691  1
  Se  Se32  1  0.143136  0.125979  0.115452  1
  Se  Se33  1  0.914013  0.860062  0.083203  1
  Se  Se34  1  0.889564  0.133390  0.878060  1
  Se  Se35  1  0.152283  0.895805  0.838703  1
  Se  Se36  1  0.108048  0.635691  0.627813  1
  Se  Se37  1  0.897347  0.366543  0.595732  1
  Se  Se38  1  0.908197  0.615841  0.348083  1
  Se  Se39  1  0.154991  0.378703  0.362307  1
  Se  Se40  1  0.635041  0.131952  0.610978  1
  Se  Se41  1  0.412236  0.871056  0.602798  1
  Se  Se42  1  0.394581  0.129689  0.365848  1
  Se  Se43  1  0.652045  0.879831  0.354899  1
  Se  Se44  1  0.630613  0.629989  0.106135  1
  Se  Se45  1  0.422660  0.355341  0.100976  1
  Se  Se46  1  0.386159  0.618788  0.864459  1
  Se  Se47  1  0.641544  0.382198  0.841686  1
  Se  Se48  1  0.243330  0.243895  0.742941  1
  Se  Se49  1  0.754259  0.759878  0.725361  1
  Se  Se50  1  0.035886  0.991190  0.464740  1
  Se  Se51  1  0.544466  0.980054  0.982707  1
  Cl  Cl52  1  0.783653  0.205353  0.277465  1
  Cl  Cl53  1  0.263667  0.787204  0.220352  1
  Cl  Cl54  1  0.068572  0.479218  0.965409  1
  Cl  Cl55  1  0.569229  0.487244  0.454696  1
