# generated using pymatgen
data_Li7GeS5Cl
_symmetry_space_group_name_H-M   'P 1'
_cell_length_a   10.28435007
_cell_length_b   10.15279615
_cell_length_c   10.14727261
_cell_angle_alpha   90.36711313
_cell_angle_beta   88.48635842
_cell_angle_gamma   90.72728426
_symmetry_Int_Tables_number   1
_chemical_formula_structural   Li7GeS5Cl
_chemical_formula_sum   'Li28 Ge4 S20 Cl4'
_cell_volume   1059.05197967
_cell_formula_units_Z   4
loop_
 _symmetry_equiv_pos_site_id
 _symmetry_equiv_pos_as_xyz
  1  'x, y, z'
loop_
 _atom_site_type_symbol
 _atom_site_label
 _atom_site_symmetry_multiplicity
 _atom_site_fract_x
 _atom_site_fract_y
 _atom_site_fract_z
 _atom_site_occupancy
  Li  Li0  1  0.036374  0.300305  0.811534  1
  Li  Li1  1  0.986335  0.790692  0.693629  1
  Li  Li2  1  0.010712  0.292677  0.189051  1
  Li  Li3  1  0.934877  0.812926  0.363968  1
  Li  Li4  1  0.802976  0.016183  0.265429  1
  Li  Li5  1  0.656590  0.092660  0.846118  1
  Li  Li6  1  0.194971  0.973866  0.303531  1
  Li  Li7  1  0.324410  0.798080  0.009418  1
  Li  Li8  1  0.643749  0.836574  0.090250  1
  Li  Li9  1  0.307515  0.155045  0.972884  1
  Li  Li10  1  0.836711  0.500942  0.805762  1
  Li  Li11  1  0.849710  0.598206  0.117597  1
  Li  Li12  1  0.314778  0.483178  0.672378  1
  Li  Li13  1  0.201276  0.175442  0.508509  1
  Li  Li14  1  0.710261  0.319715  0.466205  1
  Li  Li15  1  0.207967  0.789577  0.514736  1
  Li  Li16  1  0.389596  0.348257  0.344964  1
  Li  Li17  1  0.477294  0.692590  0.306495  1
  Li  Li18  1  0.494851  0.281594  0.696355  1
  Li  Li19  1  0.541272  0.776162  0.801594  1
  Li  Li20  1  0.224059  0.435121  0.952347  1
  Li  Li21  1  0.101441  0.551866  0.213083  1
  Li  Li22  1  0.874631  0.096711  0.603752  1
  Li  Li23  1  0.700872  0.663016  0.508703  1
  Li  Li24  1  0.509357  0.134522  0.151718  1
  Li  Li25  1  0.819246  0.288683  0.004730  1
  Li  Li26  1  0.354527  0.990526  0.778680  1
  Li  Li27  1  0.103708  0.045660  0.724953  1
  Ge  Ge28  1  0.014107  0.972782  0.996382  1
  Ge  Ge29  1  0.018685  0.476802  0.500911  1
  Ge  Ge30  1  0.520773  0.981048  0.486313  1
  Ge  Ge31  1  0.515241  0.473251  0.995944  1
  S  S32  1  0.128916  0.102677  0.125356  1
  S  S33  1  0.883089  0.847227  0.123861  1
  S  S34  1  0.898414  0.099591  0.859137  1
  S  S35  1  0.147217  0.860298  0.861909  1
  S  S36  1  0.124110  0.605816  0.638973  1
  S  S37  1  0.891795  0.343066  0.622535  1
  S  S38  1  0.886610  0.585032  0.366962  1
  S  S39  1  0.151555  0.366346  0.363825  1
  S  S40  1  0.641329  0.122229  0.602574  1
  S  S41  1  0.413447  0.834804  0.610628  1
  S  S42  1  0.389400  0.100176  0.362776  1
  S  S43  1  0.651623  0.855951  0.357599  1
  S  S44  1  0.616873  0.602680  0.137933  1
  S  S45  1  0.380046  0.336478  0.106683  1
  S  S46  1  0.385828  0.597898  0.874044  1
  S  S47  1  0.647776  0.354556  0.865452  1
  S  S48  1  0.262650  0.230880  0.744520  1
  S  S49  1  0.045252  0.965423  0.505638  1
  S  S50  1  0.495350  0.970650  0.968977  1
  S  S51  1  0.994939  0.449980  0.007079  1
  Cl  Cl52  1  0.762605  0.713114  0.729117  1
  Cl  Cl53  1  0.752704  0.229876  0.231078  1
  Cl  Cl54  1  0.255378  0.741081  0.255519  1
  Cl  Cl55  1  0.514225  0.465293  0.505683  1
