# generated using pymatgen
data_Li6PS5Cl
_symmetry_space_group_name_H-M   'P 1'
_cell_length_a   10.09649284
_cell_length_b   10.09649284
_cell_length_c   10.09649284
_cell_angle_alpha   90.01882037
_cell_angle_beta   89.98117963
_cell_angle_gamma   89.98117963
_symmetry_Int_Tables_number   1
_chemical_formula_structural   Li6PS5Cl
_chemical_formula_sum   'Li24 P4 S20 Cl4'
_cell_volume   1029.22791032
_cell_formula_units_Z   4
loop_
 _symmetry_equiv_pos_site_id
 _symmetry_equiv_pos_as_xyz
  1  'x, y, z'
loop_
 _atom_site_type_symbol
 _atom_site_label
 _atom_site_symmetry_multiplicity
 _atom_site_fract_x
 _atom_site_fract_y
 _atom_site_fract_z
 _atom_site_occupancy
  Cl  Cl0  1  0.236105  0.239485  0.763895  1
  Cl  Cl1  1  0.760515  0.763895  0.763895  1
  Cl  Cl2  1  0.236105  0.763895  0.239485  1
  Cl  Cl3  1  0.530636  0.469364  0.469364  1
  Li  Li4  1  0.014347  0.181972  0.706428  1
  Li  Li5  1  0.494889  0.309597  0.309597  1
  Li  Li6  1  0.995120  0.746998  0.746998  1
  Li  Li7  1  0.532628  0.841055  0.145757  1
  Li  Li8  1  0.951858  0.266547  0.266547  1
  Li  Li9  1  0.532628  0.145757  0.841055  1
  Li  Li10  1  0.014347  0.706428  0.181972  1
  Li  Li11  1  0.518072  0.817905  0.817905  1
  Li  Li12  1  0.733453  0.048142  0.266547  1
  Li  Li13  1  0.854243  0.467372  0.841055  1
  Li  Li14  1  0.818028  0.985653  0.706428  1
  Li  Li15  1  0.690403  0.505111  0.309597  1
  Li  Li16  1  0.293572  0.985653  0.181972  1
  Li  Li17  1  0.182095  0.481928  0.817905  1
  Li  Li18  1  0.253002  0.004880  0.746998  1
  Li  Li19  1  0.158945  0.467372  0.145757  1
  Li  Li20  1  0.253002  0.746998  0.004880  1
  Li  Li21  1  0.158945  0.145757  0.467372  1
  Li  Li22  1  0.818028  0.706428  0.985653  1
  Li  Li23  1  0.690403  0.309597  0.505111  1
  Li  Li24  1  0.293572  0.181972  0.985653  1
  Li  Li25  1  0.182095  0.817905  0.481928  1
  Li  Li26  1  0.733453  0.266547  0.048142  1
  Li  Li27  1  0.854243  0.841055  0.467372  1
  P  P28  1  -0.015413  0.015413  0.015413  1
  P  P29  1  0.013054  0.498570  0.498570  1
  P  P30  1  0.501430  -0.013054  0.498570  1
  P  P31  1  0.501430  0.498570  -0.013054  1
  S  S32  1  0.101774  0.133998  0.133998  1
  S  S33  1  0.139803  0.609441  0.609441  1
  S  S34  1  0.617711  0.102366  0.620038  1
  S  S35  1  0.617711  0.620038  0.102366  1
  S  S36  1  0.866002  0.898226  0.133998  1
  S  S37  1  0.897634  0.382289  0.620038  1
  S  S38  1  0.390559  0.860197  0.609441  1
  S  S39  1  0.379962  0.382289  0.102366  1
  S  S40  1  0.866002  0.133998  0.898226  1
  S  S41  1  0.897634  0.620038  0.382289  1
  S  S42  1  0.379962  0.102366  0.382289  1
  S  S43  1  0.390559  0.609441  0.860197  1
  S  S44  1  0.099851  0.900149  0.900149  1
  S  S45  1  0.123711  0.376659  0.376659  1
  S  S46  1  0.623341  0.876289  0.376659  1
  S  S47  1  0.623341  0.376659  0.876289  1
  S  S48  1  0.729206  0.270794  0.270794  1
  S  S49  1  0.016844  -0.016844  0.563685  1
  S  S50  1  0.016844  0.563685  -0.016844  1
  S  S51  1  0.436315  -0.016844  -0.016844  1
