# generated using pymatgen
data_Li7GeTe5I
_symmetry_space_group_name_H-M   'P 1'
_cell_length_a   11.67275087
_cell_length_b   11.74788030
_cell_length_c   11.56343878
_cell_angle_alpha   90.70763159
_cell_angle_beta   87.29273311
_cell_angle_gamma   90.69716736
_symmetry_Int_Tables_number   1
_chemical_formula_structural   Li7GeTe5I
_chemical_formula_sum   'Li28 Ge4 Te20 I4'
_cell_volume   1583.69815075
_cell_formula_units_Z   4
loop_
 _symmetry_equiv_pos_site_id
 _symmetry_equiv_pos_as_xyz
  1  'x, y, z'
loop_
 _atom_site_type_symbol
 _atom_site_label
 _atom_site_symmetry_multiplicity
 _atom_site_fract_x
 _atom_site_fract_y
 _atom_site_fract_z
 _atom_site_occupancy
  Li  Li0  1  0.028309  0.247812  0.767653  1
  Li  Li1  1  0.964102  0.903422  0.706750  1
  Li  Li2  1  0.996104  0.292650  0.184915  1
  Li  Li3  1  0.991706  0.777194  0.285978  1
  Li  Li4  1  0.846959  0.996966  0.272147  1
  Li  Li5  1  0.673085  0.979579  0.797398  1
  Li  Li6  1  0.185640  0.978626  0.303762  1
  Li  Li7  1  0.321291  0.797708  0.001677  1
  Li  Li8  1  0.619626  0.851012  0.099930  1
  Li  Li9  1  0.196380  0.290704  0.987759  1
  Li  Li10  1  0.890256  0.475040  0.770204  1
  Li  Li11  1  0.829367  0.573010  0.093454  1
  Li  Li12  1  0.189162  0.468167  0.798063  1
  Li  Li13  1  0.304023  0.303165  0.523986  1
  Li  Li14  1  0.658783  0.353344  0.608768  1
  Li  Li15  1  0.176480  0.767171  0.488004  1
  Li  Li16  1  0.528743  0.284018  0.303683  1
  Li  Li17  1  0.569102  0.699640  0.494842  1
  Li  Li18  1  0.484561  0.180099  0.795168  1
  Li  Li19  1  0.491035  0.793577  0.790415  1
  Li  Li20  1  0.386375  0.520227  0.263167  1
  Li  Li21  1  0.079701  0.545239  0.185202  1
  Li  Li22  1  0.773024  0.947549  0.527497  1
  Li  Li23  1  0.909372  0.719599  0.525352  1
  Li  Li24  1  0.578538  0.179964  0.036820  1
  Li  Li25  1  0.827859  0.278728  0.981294  1
  Li  Li26  1  0.214368  0.019746  0.637670  1
  Li  Li27  1  0.273387  0.054511  0.914740  1
  Ge  Ge28  1  0.000896  0.964177  0.979151  1
  Ge  Ge29  1  0.008868  0.464625  0.475824  1
  Ge  Ge30  1  0.494415  0.988141  0.477477  1
  Ge  Ge31  1  0.503902  0.487155  0.985389  1
  Te  Te32  1  0.118162  0.096844  0.115744  1
  Te  Te33  1  0.866162  0.825305  0.098453  1
  Te  Te34  1  0.875256  0.085415  0.844469  1
  Te  Te35  1  0.150431  0.862957  0.837493  1
  Te  Te36  1  0.078685  0.605820  0.637904  1
  Te  Te37  1  0.892380  0.308957  0.590752  1
  Te  Te38  1  0.872293  0.577060  0.341793  1
  Te  Te39  1  0.169050  0.383106  0.331631  1
  Te  Te40  1  0.626273  0.112907  0.608033  1
  Te  Te41  1  0.377062  0.828758  0.589636  1
  Te  Te42  1  0.357269  0.121829  0.375516  1
  Te  Te43  1  0.643462  0.873665  0.345619  1
  Te  Te44  1  0.592177  0.616381  0.143374  1
  Te  Te45  1  0.396998  0.326757  0.109609  1
  Te  Te46  1  0.366379  0.605692  0.865338  1
  Te  Te47  1  0.649373  0.360226  0.857208  1
  Te  Te48  1  0.259241  0.234923  0.752683  1
  Te  Te49  1  0.006104  0.936274  0.470294  1
  Te  Te50  1  0.491590  0.974522  0.952709  1
  Te  Te51  1  0.004084  0.435233  0.981216  1
  I  I52  1  0.730228  0.759422  0.695336  1
  I  I53  1  0.752951  0.211364  0.206897  1
  I  I54  1  0.229459  0.738259  0.232102  1
  I  I55  1  0.499512  0.461538  0.477831  1
