data_Li21P4S17Br7_disorder
_audit_creation_date              2019-07-02
_audit_creation_method            'Materials Studio'
_symmetry_space_group_name_H-M    'P1'
_symmetry_Int_Tables_number       1
_symmetry_cell_setting            triclinic
loop_
_symmetry_equiv_pos_as_xyz
  x,y,z
_cell_length_a                    10.1613
_cell_length_b                    10.0484
_cell_length_c                    10.0814
_cell_angle_alpha                 90.2714
_cell_angle_beta                  91.4790
_cell_angle_gamma                 90.1998
loop_
_atom_site_label
_atom_site_type_symbol
_atom_site_fract_x
_atom_site_fract_y
_atom_site_fract_z
_atom_site_U_iso_or_equiv
_atom_site_adp_type
_atom_site_occupancy
Br0    Br    0.25549   0.24149   0.74160   0.00000  Uiso   1.00
Br1    Br    0.76845   0.75018   0.75024   0.00000  Uiso   1.00
Br2    Br    0.75281   0.24550   0.26150   0.00000  Uiso   1.00
Br3    Br    0.26030   0.74515   0.24324   0.00000  Uiso   1.00
Br4    Br    0.04841   0.96142   0.96473   0.00000  Uiso   1.00
Br5    Br    0.98585   0.49389   0.47493   0.00000  Uiso   1.00
Br6    Br    0.52032   0.99304   0.49723   0.00000  Uiso   1.00
Li7    Li    0.01035   0.20260   0.85015   0.00000  Uiso   1.00
Li8    Li    0.01508   0.78085   0.77244   0.00000  Uiso   1.00
Li9    Li   -0.00019   0.30850   0.28731   0.00000  Uiso   1.00
Li10   Li    0.03028   0.68323   0.29859   0.00000  Uiso   1.00
Li11   Li    0.69303   0.00436   0.31500   0.00000  Uiso   1.00
Li12   Li    0.69184   0.98628   0.68771   0.00000  Uiso   1.00
Li13   Li    0.20338   0.98373   0.19210   0.00000  Uiso   1.00
Li14   Li    0.24138   0.99311   0.79014   0.00000  Uiso   1.00
Li15   Li    0.27155   0.73782   0.00031   0.00000  Uiso   1.00
Li16   Li    0.82535   0.82846   0.99717   0.00000  Uiso   1.00
Li17   Li    0.28889   0.41639   0.95921   0.00000  Uiso   1.00
Li18   Li    0.71400   0.31791   0.01224   0.00000  Uiso   1.00
Li19   Li    0.59315   0.54949   0.79441   0.00000  Uiso   1.00
Li20   Li    0.59018   0.61565   0.13972   0.00000  Uiso   1.00
Li21   Li    0.18604   0.47921   0.63953   0.00000  Uiso   1.00
Li22   Li    0.33367   0.16666   0.49755   0.00000  Uiso   1.00
Li23   Li    0.80717   0.30414   0.50884   0.00000  Uiso   1.00
Li24   Li    0.80157   0.68081   0.51055   0.00000  Uiso   1.00
Li25   Li    0.49700   0.30979   0.19095   0.00000  Uiso   1.00
Li26   Li    0.42479   0.76384   0.44815   0.00000  Uiso   1.00
Li27   Li    0.49933   0.27429   0.82544   0.00000  Uiso   1.00
P28    P     0.01312   0.99139   0.49952   0.00000  Uiso   1.00
P29    P     0.51988   0.98087   0.00287   0.00000  Uiso   1.00
P30    P     0.99297   0.48876   0.97697   0.00000  Uiso   1.00
P31    P     0.49410   0.47877   0.50134   0.00000  Uiso   1.00
S32    S     0.12041   0.11504   0.37852   0.00000  Uiso   1.00
S33    S     0.89029   0.87245   0.38221   0.00000  Uiso   1.00
S34    S     0.90248   0.10657   0.62472   0.00000  Uiso   1.00
S35    S     0.14377   0.87130   0.59897   0.00000  Uiso   1.00
S36    S     0.39593   0.09924   0.10615   0.00000  Uiso   1.00
S37    S     0.42264   0.85997   0.86887   0.00000  Uiso   1.00
S38    S     0.63285   0.86135   0.12834   0.00000  Uiso   1.00
S39    S     0.65122   0.09895   0.90104   0.00000  Uiso   1.00
S40    S     0.09678   0.34258   0.07531   0.00000  Uiso   1.00
S41    S     0.86480   0.40015   0.84592   0.00000  Uiso   1.00
S42    S     0.13422   0.58937   0.86494   0.00000  Uiso   1.00
S43    S     0.89781   0.61471   0.10190   0.00000  Uiso   1.00
S44    S     0.39393   0.60015   0.62851   0.00000  Uiso   1.00
S45    S     0.36605   0.37477   0.38186   0.00000  Uiso   1.00
S46    S     0.61135   0.36092   0.62200   0.00000  Uiso   1.00
S47    S     0.60719   0.60373   0.38742   0.00000  Uiso   1.00
S48    S     0.51523   0.44768   0.99512   0.00000  Uiso   1.00
loop_
_geom_bond_atom_site_label_1
_geom_bond_atom_site_label_2
_geom_bond_distance
_geom_bond_site_symmetry_2
_ccdc_geom_bond_type
P28    S32     2.072   1_565 S
P28    S33     2.070   1_455 S
P28    S34     2.065   1_465 S
P28    S35     2.044   .     D
P29    S36     2.038   1_565 S
P29    S37     2.046   1_554 S
P29    S38     2.076   .     S
P29    S39     2.077   1_564 D
P30    S40     2.055   1_656 S
P30    S41     2.031   .     S
P30    S42     2.108   1_655 S
P30    S43     2.044   1_556 D
P31    S44     2.056   .     S
P31    S45     2.033   .     S
P31    S46     2.062   .     S
P31    S47     2.071   .     D
S32    P28     2.072   1_545 S
S33    P28     2.070   1_655 S
S34    P28     2.065   1_645 S
S36    P29     2.038   1_545 S
S37    P29     2.046   1_556 S
S39    P29     2.077   1_546 D
S40    P30     2.055   1_454 S
S42    P30     2.108   1_455 S
S43    P30     2.044   1_554 D
