data_Li22P4S18I6_c00005_contcar
_audit_creation_date              2019-04-03
_audit_creation_method            'Materials Studio'
_symmetry_space_group_name_H-M    'P1'
_symmetry_Int_Tables_number       1
_symmetry_cell_setting            triclinic
loop_
_symmetry_equiv_pos_as_xyz
  x,y,z
_cell_length_a                    10.4831
_cell_length_b                    10.3024
_cell_length_c                    10.2985
_cell_angle_alpha                 89.6219
_cell_angle_beta                  90.8715
_cell_angle_gamma                 90.1517
loop_
_atom_site_label
_atom_site_type_symbol
_atom_site_fract_x
_atom_site_fract_y
_atom_site_fract_z
_atom_site_U_iso_or_equiv
_atom_site_adp_type
_atom_site_occupancy
I1     I    -0.00548  -0.02468   0.00284   0.00000  Uiso   1.00
I2     I     0.46114   0.50737  -0.01700   0.00000  Uiso   1.00
I3     I     0.52860  -0.00706   0.48978   0.00000  Uiso   1.00
I4     I    -0.00795   0.47253   0.51840   0.00000  Uiso   1.00
I5     I     0.24387   0.75100   0.25678   0.00000  Uiso   1.00
I6     I     0.74066   0.26039   0.24034   0.00000  Uiso   1.00
Li7    Li    0.02545   0.28080   0.72618   0.00000  Uiso   1.00
Li8    Li    0.76803   0.76056   0.97773   0.00000  Uiso   1.00
Li9    Li   -0.00635   0.31992   0.29714   0.00000  Uiso   1.00
Li10   Li    0.28381   0.71265  -0.00436   0.00000  Uiso   1.00
Li11   Li   -0.00957   0.77807   0.20930   0.00000  Uiso   1.00
Li12   Li    0.81476   0.18092  -0.00169   0.00000  Uiso   1.00
Li13   Li    0.97290   0.77610   0.75652   0.00000  Uiso   1.00
Li14   Li    0.28305   0.28340   0.97275   0.00000  Uiso   1.00
Li15   Li    0.22053   0.02678   0.76950   0.00000  Uiso   1.00
Li16   Li    0.19102   0.00975   0.19327   0.00000  Uiso   1.00
Li17   Li    0.71115   0.97392   0.71418   0.00000  Uiso   1.00
Li18   Li    0.71829   0.00383   0.29191   0.00000  Uiso   1.00
Li19   Li    0.52400   0.71241   0.77455   0.00000  Uiso   1.00
Li20   Li    0.49573   0.78672   0.31377   0.00000  Uiso   1.00
Li21   Li    0.49580   0.19620   0.30963   0.00000  Uiso   1.00
Li22   Li    0.47150   0.23675   0.73952   0.00000  Uiso   1.00
Li23   Li    0.77573   0.52235   0.73389   0.00000  Uiso   1.00
Li24   Li    0.27083   0.48224   0.75893   0.00000  Uiso   1.00
Li25   Li    0.30800   0.49683   0.20595   0.00000  Uiso   1.00
Li26   Li    0.73747   0.74846   0.52242   0.00000  Uiso   1.00
Li27   Li    0.21963   0.28010   0.52469   0.00000  Uiso   1.00
Li28   Li    0.78599   0.29845   0.50343   0.00000  Uiso   1.00
P29    P    -0.00103   0.00152   0.50338   0.00000  Uiso   1.00
P30    P     0.49990  -0.00330  -0.00047   0.00000  Uiso   1.00
P31    P    -0.00006   0.49784  -0.00256   0.00000  Uiso   1.00
P32    P     0.50123   0.50150   0.50475   0.00000  Uiso   1.00
S33    S     0.10341   0.12262   0.38217   0.00000  Uiso   1.00
S34    S     0.38678   0.88756   0.87658   0.00000  Uiso   1.00
S35    S     0.88351   0.11316   0.61982   0.00000  Uiso   1.00
S36    S     0.61050   0.87712   0.11648   0.00000  Uiso   1.00
S37    S     0.11808   0.88771   0.61039   0.00000  Uiso   1.00
S38    S     0.38586   0.11340   0.11276   0.00000  Uiso   1.00
S39    S     0.88501   0.88091   0.38923   0.00000  Uiso   1.00
S40    S     0.61531   0.11250   0.88619   0.00000  Uiso   1.00
S41    S     0.88167   0.59938   0.11356   0.00000  Uiso   1.00
S42    S     0.88675   0.37577   0.88533   0.00000  Uiso   1.00
S43    S     0.12013   0.38260   0.11199   0.00000  Uiso   1.00
S44    S     0.10648   0.61281   0.87449   0.00000  Uiso   1.00
S45    S     0.61935   0.59957   0.38251   0.00000  Uiso   1.00
S46    S     0.38551   0.62094   0.60512   0.00000  Uiso   1.00
S47    S     0.61201   0.38455   0.62759   0.00000  Uiso   1.00
S48    S     0.38472   0.37800   0.39351   0.00000  Uiso   1.00
S49    S     0.24867   0.25141   0.74995   0.00000  Uiso   1.00
S50    S     0.74765   0.74924   0.75048   0.00000  Uiso   1.00
loop_
_geom_bond_atom_site_label_1
_geom_bond_atom_site_label_2
_geom_bond_distance
_geom_bond_site_symmetry_2
_ccdc_geom_bond_type
P29    S33     2.080   .     S
P29    S35     2.073   1_455 S
P29    S37     2.024   1_545 S
P29    S39     2.079   1_445 D
P30    S34     2.059   1_544 S
P30    S36     2.063   1_545 S
P30    S38     2.074   .     S
P30    S40     2.066   1_554 D
P31    S41     2.032   1_455 S
P31    S42     2.072   1_454 S
P31    S43     2.082   .     S
P31    S44     2.066   1_554 D
P32    S45     2.040   .     S
P32    S46     2.029   .     S
P32    S47     2.084   .     S
P32    S48     2.096   .     D
S34    P30     2.059   1_566 S
S35    P29     2.073   1_655 S
S36    P30     2.063   1_565 S
S37    P29     2.024   1_565 S
S39    P29     2.079   1_665 D
S40    P30     2.066   1_556 D
S41    P31     2.032   1_655 S
S42    P31     2.072   1_656 S
S44    P31     2.066   1_556 D
