# generated using pymatgen
data_Li6PS5Cl
_symmetry_space_group_name_H-M   'P 1'
_cell_length_a   10.25704752
_cell_length_b   10.25704752
_cell_length_c   10.25704752
_cell_angle_alpha   90.00000000
_cell_angle_beta   90.00000000
_cell_angle_gamma   90.00000000
_symmetry_Int_Tables_number   1
_chemical_formula_structural   Li6PS5Cl
_chemical_formula_sum   'Li24 P4 S20 Cl4'
_cell_volume   1079.11344416
_cell_formula_units_Z   4
loop_
 _symmetry_equiv_pos_site_id
 _symmetry_equiv_pos_as_xyz
  1  'x, y, z'
loop_
 _atom_site_type_symbol
 _atom_site_label
 _atom_site_symmetry_multiplicity
 _atom_site_fract_x
 _atom_site_fract_y
 _atom_site_fract_z
 _atom_site_occupancy
  Li  Li1  1  0.023340  0.250000  0.750000  1
  Li  Li2  1  0.250000  0.750000  0.023340  1
  Li  Li3  1  0.976660  0.250000  0.250000  1
  Li  Li4  1  0.750000  0.750000  0.976660  1
  Li  Li5  1  0.023340  0.750000  0.250000  1
  Li  Li6  1  0.250000  0.250000  0.976660  1
  Li  Li7  1  0.976660  0.750000  0.750000  1
  Li  Li8  1  0.750000  0.250000  0.023340  1
  Li  Li9  1  0.250000  0.023340  0.750000  1
  Li  Li10  1  0.250000  0.976660  0.250000  1
  Li  Li11  1  0.750000  0.976660  0.750000  1
  Li  Li12  1  0.750000  0.023340  0.250000  1
  Li  Li13  1  0.523340  0.750000  0.750000  1
  Li  Li14  1  0.476660  0.750000  0.250000  1
  Li  Li15  1  0.523340  0.250000  0.250000  1
  Li  Li16  1  0.476660  0.250000  0.750000  1
  Li  Li17  1  0.750000  0.523340  0.750000  1
  Li  Li18  1  0.750000  0.476660  0.250000  1
  Li  Li19  1  0.250000  0.476660  0.750000  1
  Li  Li20  1  0.250000  0.523340  0.250000  1
  Li  Li21  1  0.750000  0.750000  0.523340  1
  Li  Li22  1  0.250000  0.750000  0.476660  1
  Li  Li23  1  0.750000  0.250000  0.476660  1
  Li  Li24  1  0.250000  0.250000  0.523340  1
  P  P25  1  0.000000  -0.000000  0.000000  1
  P  P26  1  0.500000  0.500000  0.000000  1
  P  P27  1  0.500000  -0.000000  0.500000  1
  P  P28  1  0.000000  0.500000  0.500000  1
  S  S29  1  0.115553  0.115553  0.115553  1
  S  S30  1  0.884447  0.884447  0.115553  1
  S  S31  1  0.884447  0.115553  0.884447  1
  S  S32  1  0.115553  0.884447  0.884447  1
  S  S33  1  0.615553  0.615553  0.115553  1
  S  S34  1  0.384447  0.384447  0.115553  1
  S  S35  1  0.384447  0.615553  0.884447  1
  S  S36  1  0.615553  0.384447  0.884447  1
  S  S37  1  0.615553  0.115553  0.615553  1
  S  S38  1  0.384447  0.884447  0.615553  1
  S  S39  1  0.384447  0.115553  0.384447  1
  S  S40  1  0.615553  0.884447  0.384447  1
  S  S41  1  0.115553  0.615553  0.615553  1
  S  S42  1  0.884447  0.384447  0.615553  1
  S  S43  1  0.884447  0.615553  0.384447  1
  S  S44  1  0.115553  0.384447  0.384447  1
  S  S45  1  0.250000  0.250000  0.750000  1
  S  S46  1  0.250000  0.750000  0.250000  1
  S  S47  1  0.750000  0.250000  0.250000  1
  S  S48  1  0.750000  0.750000  0.750000  1
  Cl  Cl49  1  0.000000  -0.000000  0.500000  1
  Cl  Cl50  1  0.500000  -0.000000  0.000000  1
  Cl  Cl51  1  -0.000000  0.500000  0.000000  1
  Cl  Cl52  1  0.500000  0.500000  0.500000  1
