# generated using pymatgen
data_Li7SiS5I
_symmetry_space_group_name_H-M   'P 1'
_cell_length_a   10.41390059
_cell_length_b   10.29245902
_cell_length_c   10.28601109
_cell_angle_alpha   89.66845786
_cell_angle_beta   90.70527549
_cell_angle_gamma   89.46444763
_symmetry_Int_Tables_number   1
_chemical_formula_structural   Li7SiS5I
_chemical_formula_sum   'Li28 Si4 S20 I4'
_cell_volume   1102.35156247
_cell_formula_units_Z   4
loop_
 _symmetry_equiv_pos_site_id
 _symmetry_equiv_pos_as_xyz
  1  'x, y, z'
loop_
 _atom_site_type_symbol
 _atom_site_label
 _atom_site_symmetry_multiplicity
 _atom_site_fract_x
 _atom_site_fract_y
 _atom_site_fract_z
 _atom_site_occupancy
  Li  Li0  1  0.037502  0.306246  0.777561  1
  Li  Li1  1  0.983738  0.715927  0.762678  1
  Li  Li2  1  0.992197  0.191881  0.285200  1
  Li  Li3  1  0.992648  0.828734  0.295837  1
  Li  Li4  1  0.749318  0.014677  0.221546  1
  Li  Li5  1  0.729800  0.981262  0.786323  1
  Li  Li6  1  0.206469  0.008927  0.294959  1
  Li  Li7  1  0.220842  0.707356  0.972316  1
  Li  Li8  1  0.783622  0.714949  0.968319  1
  Li  Li9  1  0.267398  0.251028  0.978742  1
  Li  Li10  1  0.739950  0.509378  0.722906  1
  Li  Li11  1  0.738930  0.480686  0.279591  1
  Li  Li12  1  0.288213  0.468927  0.711322  1
  Li  Li13  1  0.225633  0.208162  0.514597  1
  Li  Li14  1  0.799983  0.200705  0.479237  1
  Li  Li15  1  0.189010  0.825404  0.529371  1
  Li  Li16  1  0.541949  0.272722  0.320676  1
  Li  Li17  1  0.519535  0.795985  0.198159  1
  Li  Li18  1  0.493862  0.262577  0.725401  1
  Li  Li19  1  0.529522  0.772827  0.804168  1
  Li  Li20  1  0.323659  0.477252  0.313757  1
  Li  Li21  1  0.044851  0.539471  0.224369  1
  Li  Li22  1  0.590837  0.725731  0.549206  1
  Li  Li23  1  0.838728  0.837854  0.517637  1
  Li  Li24  1  0.588680  0.225155  0.066125  1
  Li  Li25  1  0.834801  0.294509  0.015413  1
  Li  Li26  1  0.316883  0.009924  0.785566  1
  Li  Li27  1  0.045581  0.045387  0.688337  1
  Si  Si28  1  0.012484  0.002954  0.983814  1
  Si  Si29  1  0.010362  0.500120  0.498045  1
  Si  Si30  1  0.514334  0.998081  0.498735  1
  Si  Si31  1  0.517976  0.492672  0.001344  1
  S  S32  1  0.126952  0.120964  0.106593  1
  S  S33  1  0.890858  0.880186  0.094058  1
  S  S34  1  0.900301  0.126590  0.857355  1
  S  S35  1  0.125936  0.885577  0.852743  1
  S  S36  1  0.131828  0.615318  0.616572  1
  S  S37  1  0.892113  0.375478  0.607648  1
  S  S38  1  0.895491  0.627349  0.375425  1
  S  S39  1  0.123794  0.377909  0.371280  1
  S  S40  1  0.634967  0.115159  0.615922  1
  S  S41  1  0.405903  0.866065  0.616492  1
  S  S42  1  0.391161  0.113001  0.378408  1
  S  S43  1  0.639339  0.879198  0.380453  1
  S  S44  1  0.635641  0.616103  0.115612  1
  S  S45  1  0.411276  0.365354  0.126862  1
  S  S46  1  0.394943  0.600185  0.873257  1
  S  S47  1  0.637863  0.367157  0.886863  1
  S  S48  1  0.257603  0.235161  0.744123  1
  S  S49  1  0.753098  0.747973  0.731265  1
  S  S50  1  0.760502  0.245229  0.240170  1
  S  S51  1  0.027782  0.995623  0.459357  1
  I  I52  1  0.254902  0.736893  0.241816  1
  I  I53  1  0.515944  0.981738  0.987725  1
  I  I54  1  0.007616  0.509685  0.968012  1
  I  I55  1  0.514896  0.474415  0.506512  1
