# generated using pymatgen
data_Li7SnS5Br
_symmetry_space_group_name_H-M   'P 1'
_cell_length_a   10.61825480
_cell_length_b   10.55157515
_cell_length_c   10.57583100
_cell_angle_alpha   90.01555726
_cell_angle_beta   89.88203785
_cell_angle_gamma   87.74818663
_symmetry_Int_Tables_number   1
_chemical_formula_structural   Li7SnS5Br
_chemical_formula_sum   'Li28 Sn4 S20 Br4'
_cell_volume   1183.99126757
_cell_formula_units_Z   4
loop_
 _symmetry_equiv_pos_site_id
 _symmetry_equiv_pos_as_xyz
  1  'x, y, z'
loop_
 _atom_site_type_symbol
 _atom_site_label
 _atom_site_symmetry_multiplicity
 _atom_site_fract_x
 _atom_site_fract_y
 _atom_site_fract_z
 _atom_site_occupancy
  Li  Li0  1  0.020112  0.292206  0.766261  1
  Li  Li1  1  0.990972  0.704994  0.770302  1
  Li  Li2  1  0.018149  0.180244  0.319314  1
  Li  Li3  1  0.008229  0.785338  0.276656  1
  Li  Li4  1  0.809357  0.987131  0.282925  1
  Li  Li5  1  0.714981  0.989099  0.770124  1
  Li  Li6  1  0.209154  0.989342  0.285653  1
  Li  Li7  1  0.266276  0.762003  0.973677  1
  Li  Li8  1  0.762392  0.742486  0.960514  1
  Li  Li9  1  0.247119  0.244848  0.977722  1
  Li  Li10  1  0.791530  0.507528  0.766003  1
  Li  Li11  1  0.709918  0.502790  0.277740  1
  Li  Li12  1  0.219519  0.471301  0.776946  1
  Li  Li13  1  0.261151  0.245116  0.517705  1
  Li  Li14  1  0.653097  0.350190  0.552389  1
  Li  Li15  1  0.166947  0.831449  0.541379  1
  Li  Li16  1  0.504049  0.300195  0.308681  1
  Li  Li17  1  0.511277  0.701541  0.284344  1
  Li  Li18  1  0.480713  0.217400  0.760505  1
  Li  Li19  1  0.528835  0.779472  0.772037  1
  Li  Li20  1  0.312025  0.489659  0.288085  1
  Li  Li21  1  0.378450  0.615257  0.582936  1
  Li  Li22  1  0.675498  0.658956  0.509561  1
  Li  Li23  1  0.845895  0.828708  0.509746  1
  Li  Li24  1  0.567888  0.202371  0.037451  1
  Li  Li25  1  0.832245  0.304732  0.981311  1
  Li  Li26  1  0.300396  0.010215  0.769561  1
  Li  Li27  1  0.007387  0.037397  0.659743  1
  Sn  Sn28  1  0.005372  0.997650  0.983095  1
  Sn  Sn29  1  0.006769  0.492259  0.483170  1
  Sn  Sn30  1  0.508252  0.994447  0.483537  1
  Sn  Sn31  1  0.510741  0.497406  0.982253  1
  S  S32  1  0.126240  0.125635  0.118650  1
  S  S33  1  0.879378  0.860842  0.103999  1
  S  S34  1  0.882282  0.127174  0.837619  1
  S  S35  1  0.129559  0.876178  0.828381  1
  S  S36  1  0.141998  0.617585  0.614398  1
  S  S37  1  0.873101  0.361606  0.605013  1
  S  S38  1  0.869281  0.635258  0.368416  1
  S  S39  1  0.144069  0.360167  0.357734  1
  S  S40  1  0.630023  0.131393  0.610055  1
  S  S41  1  0.381848  0.855111  0.609657  1
  S  S42  1  0.372905  0.123780  0.353871  1
  S  S43  1  0.652297  0.854005  0.372400  1
  S  S44  1  0.635160  0.633523  0.104834  1
  S  S45  1  0.393931  0.352990  0.110607  1
  S  S46  1  0.379549  0.618842  0.837906  1
  S  S47  1  0.640585  0.351512  0.858991  1
  S  S48  1  0.248329  0.240321  0.747204  1
  S  S49  1  0.758846  0.746270  0.728040  1
  S  S50  1  0.013308  0.969607  0.436380  1
  S  S51  1  0.520597  0.503773  0.429321  1
  Br  Br52  1  0.745703  0.240829  0.214545  1
  Br  Br53  1  0.261163  0.741411  0.221184  1
  Br  Br54  1  0.504187  0.998844  0.922290  1
  Br  Br55  1  0.990965  0.485387  0.922962  1
