# generated using pymatgen
data_Li7GeS5Br
_symmetry_space_group_name_H-M   'P 1'
_cell_length_a   10.40486266
_cell_length_b   10.31732786
_cell_length_c   10.31732786
_cell_angle_alpha   90.73627777
_cell_angle_beta   89.55187758
_cell_angle_gamma   89.55187758
_symmetry_Int_Tables_number   1
_chemical_formula_structural   Li7GeS5Br
_chemical_formula_sum   'Li28 Ge4 S20 Br4'
_cell_volume   1107.40898435
_cell_formula_units_Z   4
loop_
 _symmetry_equiv_pos_site_id
 _symmetry_equiv_pos_as_xyz
  1  'x, y, z'
loop_
 _atom_site_type_symbol
 _atom_site_label
 _atom_site_symmetry_multiplicity
 _atom_site_fract_x
 _atom_site_fract_y
 _atom_site_fract_z
 _atom_site_occupancy
  Li  Li0  1  0.025620  0.308944  0.782512  1
  Li  Li1  1  0.986321  0.728045  0.765744  1
  Li  Li2  1  0.986321  0.228045  0.265744  1
  Li  Li3  1  0.025620  0.808944  0.282512  1
  Li  Li4  1  0.743373  0.010439  0.228927  1
  Li  Li5  1  0.728597  0.985927  0.782120  1
  Li  Li6  1  0.262173  0.971872  0.238188  1
  Li  Li7  1  0.243373  0.728927  0.010439  1
  Li  Li8  1  0.762173  0.738188  0.971872  1
  Li  Li9  1  0.228597  0.282120  0.985927  1
  Li  Li10  1  0.743373  0.510439  0.728927  1
  Li  Li11  1  0.728597  0.485927  0.282120  1
  Li  Li12  1  0.262173  0.471872  0.738188  1
  Li  Li13  1  0.243373  0.228927  0.510439  1
  Li  Li14  1  0.762173  0.238188  0.471872  1
  Li  Li15  1  0.228597  0.782120  0.485927  1
  Li  Li16  1  0.525620  0.282512  0.308944  1
  Li  Li17  1  0.486321  0.765744  0.228045  1
  Li  Li18  1  0.486321  0.265744  0.728045  1
  Li  Li19  1  0.525620  0.782512  0.808944  1
  Li  Li20  1  0.330121  0.512131  0.306576  1
  Li  Li21  1  0.076084  0.551188  0.211585  1
  Li  Li22  1  0.576084  0.711585  0.551188  1
  Li  Li23  1  0.830121  0.806576  0.512131  1
  Li  Li24  1  0.576084  0.211585  0.051188  1
  Li  Li25  1  0.830121  0.306576  0.012131  1
  Li  Li26  1  0.330121  0.012131  0.806576  1
  Li  Li27  1  0.076084  0.051188  0.711585  1
  Ge  Ge28  1  0.013331  -0.000116  0.994858  1
  Ge  Ge29  1  0.013331  0.499884  0.494858  1
  Ge  Ge30  1  0.513331  0.994858  0.499884  1
  Ge  Ge31  1  0.513331  0.494858  -0.000116  1
  S  S32  1  0.134377  0.120946  0.123182  1
  S  S33  1  0.887731  0.870622  0.109795  1
  S  S34  1  0.899056  0.125650  0.861050  1
  S  S35  1  0.139221  0.878339  0.861697  1
  S  S36  1  0.134377  0.620946  0.623182  1
  S  S37  1  0.887731  0.370622  0.609795  1
  S  S38  1  0.899056  0.625650  0.361050  1
  S  S39  1  0.139221  0.378339  0.361697  1
  S  S40  1  0.634377  0.123182  0.620946  1
  S  S41  1  0.399056  0.861050  0.625650  1
  S  S42  1  0.387731  0.109795  0.370622  1
  S  S43  1  0.639221  0.861697  0.378339  1
  S  S44  1  0.634377  0.623182  0.120946  1
  S  S45  1  0.399056  0.361050  0.125650  1
  S  S46  1  0.387731  0.609795  0.870622  1
  S  S47  1  0.639221  0.361697  0.878339  1
  S  S48  1  0.250632  0.234928  0.745827  1
  S  S49  1  0.750632  0.745827  0.734928  1
  S  S50  1  0.750632  0.245827  0.234928  1
  S  S51  1  0.250632  0.734928  0.245827  1
  Br  Br52  1  0.023362  0.973194  0.478720  1
  Br  Br53  1  0.523362  0.978720  0.973194  1
  Br  Br54  1  0.023362  0.473194  0.978720  1
  Br  Br55  1  0.523362  0.478720  0.473194  1
