# generated using pymatgen
data_Li7GeSe5Br
_symmetry_space_group_name_H-M   'P 1'
_cell_length_a   10.90937618
_cell_length_b   10.84255810
_cell_length_c   10.84255810
_cell_angle_alpha   91.63324855
_cell_angle_beta   89.53047574
_cell_angle_gamma   89.53047574
_symmetry_Int_Tables_number   1
_chemical_formula_structural   Li7GeSe5Br
_chemical_formula_sum   'Li28 Ge4 Se20 Br4'
_cell_volume   1281.90824660
_cell_formula_units_Z   4
loop_
 _symmetry_equiv_pos_site_id
 _symmetry_equiv_pos_as_xyz
  1  'x, y, z'
loop_
 _atom_site_type_symbol
 _atom_site_label
 _atom_site_symmetry_multiplicity
 _atom_site_fract_x
 _atom_site_fract_y
 _atom_site_fract_z
 _atom_site_occupancy
  Li  Li0  1  0.024973  0.310119  0.789335  1
  Li  Li1  1  0.984052  0.744036  0.750067  1
  Li  Li2  1  0.984052  0.244036  0.250067  1
  Li  Li3  1  0.024973  0.810119  0.289335  1
  Li  Li4  1  0.741490  0.013970  0.224482  1
  Li  Li5  1  0.718466  0.988774  0.785764  1
  Li  Li6  1  0.265350  0.964300  0.238689  1
  Li  Li7  1  0.241490  0.724482  0.013970  1
  Li  Li8  1  0.765350  0.738689  0.964300  1
  Li  Li9  1  0.218466  0.285764  0.988774  1
  Li  Li10  1  0.741490  0.513970  0.724482  1
  Li  Li11  1  0.718466  0.488774  0.285764  1
  Li  Li12  1  0.265350  0.464300  0.738689  1
  Li  Li13  1  0.241490  0.224482  0.513970  1
  Li  Li14  1  0.765350  0.238689  0.464300  1
  Li  Li15  1  0.218466  0.785764  0.488774  1
  Li  Li16  1  0.524973  0.289335  0.310119  1
  Li  Li17  1  0.484052  0.750067  0.244036  1
  Li  Li18  1  0.484052  0.250067  0.744036  1
  Li  Li19  1  0.524973  0.789335  0.810119  1
  Li  Li20  1  0.331794  0.510320  0.311157  1
  Li  Li21  1  0.076528  0.547906  0.212774  1
  Li  Li22  1  0.576528  0.712774  0.547906  1
  Li  Li23  1  0.831794  0.811157  0.510320  1
  Li  Li24  1  0.576528  0.212774  0.047906  1
  Li  Li25  1  0.831794  0.311157  0.010320  1
  Li  Li26  1  0.331794  0.010320  0.811157  1
  Li  Li27  1  0.076528  0.047906  0.712774  1
  Ge  Ge28  1  0.014252  0.998873  0.996864  1
  Ge  Ge29  1  0.014252  0.498873  0.496864  1
  Ge  Ge30  1  0.514252  0.996864  0.498873  1
  Ge  Ge31  1  0.514252  0.496864  0.998873  1
  Se  Se32  1  0.138844  0.119136  0.129689  1
  Se  Se33  1  0.886799  0.867676  0.112133  1
  Se  Se34  1  0.897245  0.123695  0.861148  1
  Se  Se35  1  0.143210  0.874066  0.862638  1
  Se  Se36  1  0.138844  0.619136  0.629689  1
  Se  Se37  1  0.886799  0.367676  0.612133  1
  Se  Se38  1  0.897245  0.623695  0.361148  1
  Se  Se39  1  0.143210  0.374066  0.362638  1
  Se  Se40  1  0.638844  0.129689  0.619136  1
  Se  Se41  1  0.397245  0.861148  0.623695  1
  Se  Se42  1  0.386799  0.112133  0.367676  1
  Se  Se43  1  0.643210  0.862638  0.374066  1
  Se  Se44  1  0.638844  0.629689  0.119136  1
  Se  Se45  1  0.397245  0.361148  0.123695  1
  Se  Se46  1  0.386799  0.612133  0.867676  1
  Se  Se47  1  0.643210  0.362638  0.874066  1
  Se  Se48  1  0.249070  0.229762  0.749353  1
  Se  Se49  1  0.749070  0.749353  0.729762  1
  Se  Se50  1  0.749070  0.249353  0.229762  1
  Se  Se51  1  0.249070  0.729762  0.249353  1
  Br  Br52  1  0.027926  0.951973  0.494194  1
  Br  Br53  1  0.527926  0.994194  0.951973  1
  Br  Br54  1  0.027926  0.451973  0.994194  1
  Br  Br55  1  0.527926  0.494194  0.451973  1
