# generated using pymatgen
data_Li7SiS5Cl
_symmetry_space_group_name_H-M   'P 1'
_cell_length_a   10.18170197
_cell_length_b   10.43074464
_cell_length_c   10.04329629
_cell_angle_alpha   90.88689604
_cell_angle_beta   89.26095757
_cell_angle_gamma   89.52396759
_symmetry_Int_Tables_number   1
_chemical_formula_structural   Li7SiS5Cl
_chemical_formula_sum   'Li28 Si4 S20 Cl4'
_cell_volume   1066.37040143
_cell_formula_units_Z   4
loop_
 _symmetry_equiv_pos_site_id
 _symmetry_equiv_pos_as_xyz
  1  'x, y, z'
loop_
 _atom_site_type_symbol
 _atom_site_label
 _atom_site_symmetry_multiplicity
 _atom_site_fract_x
 _atom_site_fract_y
 _atom_site_fract_z
 _atom_site_occupancy
  Li  Li0  1  0.018384  0.312855  0.796446  1
  Li  Li1  1  0.986010  0.765780  0.710809  1
  Li  Li2  1  0.990430  0.267543  0.220145  1
  Li  Li3  1  0.009130  0.796754  0.291164  1
  Li  Li4  1  0.827072  0.019595  0.327663  1
  Li  Li5  1  0.757154  0.978522  0.734792  1
  Li  Li6  1  0.167242  0.030757  0.335841  1
  Li  Li7  1  0.239401  0.741210  0.003311  1
  Li  Li8  1  0.782313  0.724378  0.962632  1
  Li  Li9  1  0.226459  0.282984  0.994989  1
  Li  Li10  1  0.726772  0.517801  0.703431  1
  Li  Li11  1  0.704955  0.482449  0.287223  1
  Li  Li12  1  0.271507  0.470735  0.743220  1
  Li  Li13  1  0.272496  0.246915  0.520298  1
  Li  Li14  1  0.731702  0.267921  0.473573  1
  Li  Li15  1  0.199902  0.799308  0.514313  1
  Li  Li16  1  0.520472  0.229121  0.227194  1
  Li  Li17  1  0.534777  0.825161  0.169153  1
  Li  Li18  1  0.485129  0.247131  0.759164  1
  Li  Li19  1  0.528901  0.794390  0.813270  1
  Li  Li20  1  0.349445  0.505832  0.326496  1
  Li  Li21  1  0.083457  0.533423  0.209812  1
  Li  Li22  1  0.562968  0.716262  0.542340  1
  Li  Li23  1  0.824192  0.790040  0.497481  1
  Li  Li24  1  0.801954  0.325038  0.014722  1
  Li  Li25  1  0.725850  0.064206  0.056667  1
  Li  Li26  1  0.321946  0.014458  0.817495  1
  Li  Li27  1  0.067409  0.057135  0.688774  1
  Si  Si28  1  0.008646  0.001642  0.995459  1
  Si  Si29  1  0.013638  0.490591  0.495637  1
  Si  Si30  1  0.508375  -0.002572  0.497728  1
  Si  Si31  1  0.510452  0.503781  0.995909  1
  S  S32  1  0.134086  0.108232  0.119383  1
  S  S33  1  0.878855  0.885997  0.111098  1
  S  S34  1  0.887843  0.121726  0.873216  1
  S  S35  1  0.125247  0.885419  0.861329  1
  S  S36  1  0.132201  0.606018  0.620760  1
  S  S37  1  0.889258  0.372396  0.609935  1
  S  S38  1  0.900055  0.601885  0.359257  1
  S  S39  1  0.144131  0.375356  0.371745  1
  S  S40  1  0.623875  0.121611  0.616445  1
  S  S41  1  0.396420  0.873626  0.623990  1
  S  S42  1  0.384092  0.102915  0.370784  1
  S  S43  1  0.635236  0.875859  0.377297  1
  S  S44  1  0.634661  0.622466  0.113302  1
  S  S45  1  0.391095  0.389341  0.122767  1
  S  S46  1  0.388417  0.619491  0.874024  1
  S  S47  1  0.630095  0.383826  0.869888  1
  S  S48  1  0.247204  0.235905  0.755031  1
  S  S49  1  0.749070  0.747887  0.724994  1
  S  S50  1  0.755748  0.235874  0.235137  1
  S  S51  1  0.009305  0.940752  0.484220  1
  Cl  Cl52  1  0.232376  0.719119  0.239143  1
  Cl  Cl53  1  0.518660  0.969582  0.981106  1
  Cl  Cl54  1  0.015535  0.432595  0.010011  1
  Cl  Cl55  1  0.537997  0.496758  0.473768  1
