# generated using pymatgen
data_Li6PS5Br
_symmetry_space_group_name_H-M   'P 1'
_cell_length_a   10.21193916
_cell_length_b   10.21502428
_cell_length_c   10.67964707
_cell_angle_alpha   90.00000000
_cell_angle_beta   90.00000000
_cell_angle_gamma   87.23959658
_symmetry_Int_Tables_number   1
_chemical_formula_structural   Li6PS5Br
_chemical_formula_sum   'Li24 P4 S20 Br4'
_cell_volume   1112.75691148
_cell_formula_units_Z   4
loop_
 _symmetry_equiv_pos_site_id
 _symmetry_equiv_pos_as_xyz
  1  'x, y, z'
loop_
 _atom_site_type_symbol
 _atom_site_label
 _atom_site_symmetry_multiplicity
 _atom_site_fract_x
 _atom_site_fract_y
 _atom_site_fract_z
 _atom_site_occupancy
  Br  Br1  1  0.250330  0.249990  0.754358  1
  Br  Br2  1  0.749670  0.750010  0.754358  1
  Br  Br3  1  0.000000  0.000000  0.085484  1
  Br  Br4  1  0.500000  0.500000  0.084754  1
  Li  Li5  1  0.000375  0.307527  0.699810  1
  Li  Li6  1  -0.000375  0.692473  0.699810  1
  Li  Li7  1  0.979501  0.219718  0.228023  1
  Li  Li8  1  0.020499  0.780282  0.228023  1
  Li  Li9  1  0.779939  0.020633  0.228490  1
  Li  Li10  1  0.692578  -0.000202  0.700258  1
  Li  Li11  1  0.220061  0.979367  0.228490  1
  Li  Li12  1  0.307422  0.000202  0.700258  1
  Li  Li13  1  0.248916  0.750937  0.030793  1
  Li  Li14  1  0.748969  0.749090  -0.010189  1
  Li  Li15  1  0.251031  0.250910  -0.010189  1
  Li  Li16  1  0.751084  0.249063  0.030793  1
  Li  Li17  1  0.807262  0.500415  0.699429  1
  Li  Li18  1  0.720086  0.479238  0.227711  1
  Li  Li19  1  0.192738  0.499585  0.699429  1
  Li  Li20  1  0.279914  0.520762  0.227711  1
  Li  Li21  1  0.252627  0.247593  0.515348  1
  Li  Li22  1  0.751159  0.250769  0.468751  1
  Li  Li23  1  0.248841  0.749231  0.468751  1
  Li  Li24  1  0.747373  0.752407  0.515348  1
  Li  Li25  1  0.520838  0.280515  0.227661  1
  Li  Li26  1  0.479162  0.719485  0.227661  1
  Li  Li27  1  0.500149  0.192633  0.699919  1
  Li  Li28  1  0.499851  0.807367  0.699919  1
  P  P29  1  0.000000  0.000000  0.510581  1
  P  P30  1  0.500000  0.000000  0.009640  1
  P  P31  1  0.000000  0.500000  0.009454  1
  P  P32  1  0.500000  0.500000  0.509972  1
  S  S33  1  0.113534  0.113669  0.399312  1
  S  S34  1  0.886466  0.886331  0.399312  1
  S  S35  1  0.880966  0.118889  0.621959  1
  S  S36  1  0.119034  0.881111  0.621959  1
  S  S37  1  0.382479  0.117773  0.125314  1
  S  S38  1  0.385172  0.885338  0.900931  1
  S  S39  1  0.617521  0.882227  0.125314  1
  S  S40  1  0.614828  0.114662  0.900931  1
  S  S41  1  0.117536  0.382405  0.125072  1
  S  S42  1  0.885131  0.385412  0.900774  1
  S  S43  1  0.114869  0.614588  0.900774  1
  S  S44  1  0.882464  0.617595  0.125072  1
  S  S45  1  0.381093  0.618820  0.621434  1
  S  S46  1  0.386217  0.386410  0.398856  1
  S  S47  1  0.618907  0.381180  0.621434  1
  S  S48  1  0.613783  0.613590  0.398856  1
  S  S49  1  0.750124  0.249973  0.249356  1
  S  S50  1  0.249876  0.750027  0.249356  1
  S  S51  1  0.000000  0.500000  0.581738  1
  S  S52  1  0.500000  0.000000  0.581630  1
