# generated using pymatgen
data_Li11P2(S3Cl)3
_symmetry_space_group_name_H-M   'P 1'
_cell_length_a   10.00169689
_cell_length_b   9.82947304
_cell_length_c   9.95498519
_cell_angle_alpha   90.10804053
_cell_angle_beta   91.08764451
_cell_angle_gamma   92.14085935
_symmetry_Int_Tables_number   1
_chemical_formula_structural   Li11P2(S3Cl)3
_chemical_formula_sum   'Li22 P4 S18 Cl6'
_cell_volume   977.82600652
_cell_formula_units_Z   2
loop_
 _symmetry_equiv_pos_site_id
 _symmetry_equiv_pos_as_xyz
  1  'x, y, z'
loop_
 _atom_site_type_symbol
 _atom_site_label
 _atom_site_symmetry_multiplicity
 _atom_site_fract_x
 _atom_site_fract_y
 _atom_site_fract_z
 _atom_site_occupancy
  Cl  Cl0  1  0.240445  0.244328  0.763203  1
  Cl  Cl1  1  0.753333  0.755420  0.763486  1
  Cl  Cl2  1  0.249308  0.742145  0.237975  1
  Cl  Cl3  1  0.492154  0.510021  0.521052  1
  Cl  Cl4  1  0.716457  0.254373  0.254641  1
  Cl  Cl5  1  0.962738  0.000952  0.542360  1
  Li  Li6  1  0.026607  0.340297  0.841944  1
  Li  Li7  1  0.490129  0.191924  0.201886  1
  Li  Li8  1  0.986777  0.660902  0.789275  1
  Li  Li9  1  0.485892  0.807951  0.169756  1
  Li  Li10  1  0.118782  0.390289  0.160942  1
  Li  Li11  1  0.507156  0.164677  0.829363  1
  Li  Li12  1  0.003621  0.683102  0.211047  1
  Li  Li13  1  0.498941  0.843136  0.845670  1
  Li  Li14  1  0.704419  0.052601  0.098950  1
  Li  Li15  1  0.663542  0.527720  0.688306  1
  Li  Li16  1  0.822690  0.996677  0.729480  1
  Li  Li17  1  0.648160  0.476233  0.342715  1
  Li  Li18  1  0.285812  0.979169  0.222092  1
  Li  Li19  1  0.314791  0.461420  0.677364  1
  Li  Li20  1  0.196756  0.075504  0.583944  1
  Li  Li21  1  0.194235  0.683680  0.004439  1
  Li  Li22  1  0.799648  0.680346  0.996486  1
  Li  Li23  1  0.851922  0.205096  0.472588  1
  Li  Li24  1  0.265396  0.104449  0.959637  1
  Li  Li25  1  0.353875  0.702683  0.470726  1
  Li  Li26  1  0.807754  0.367501  0.055680  1
  Li  Li27  1  0.808156  0.821196  0.493304  1
  P  P28  1  0.991051  0.003070  0.025231  1
  P  P29  1  0.989786  0.491759  0.508810  1
  P  P30  1  0.494276  0.998983  0.513961  1
  P  P31  1  0.488347  0.491962  0.002687  1
  S  S32  1  0.114183  0.120874  0.147947  1
  S  S33  1  0.134928  0.616359  0.599532  1
  S  S34  1  0.631824  0.115225  0.623524  1
  S  S35  1  0.610229  0.607388  0.132759  1
  S  S36  1  0.868359  0.878648  0.138285  1
  S  S37  1  0.872694  0.403072  0.655456  1
  S  S38  1  0.366486  0.894926  0.641085  1
  S  S39  1  0.360072  0.368933  0.104876  1
  S  S40  1  0.869108  0.137454  0.924240  1
  S  S41  1  0.863576  0.609231  0.393124  1
  S  S42  1  0.371306  0.122969  0.405438  1
  S  S43  1  0.386296  0.617688  0.875180  1
  S  S44  1  0.101308  0.898007  0.892317  1
  S  S45  1  0.062458  0.340612  0.397121  1
  S  S46  1  0.587430  0.864581  0.392821  1
  S  S47  1  0.617021  0.382692  0.888699  1
  S  S48  1  0.994243  0.530919  0.007159  1
  S  S49  1  0.475522  0.007747  0.028327  1
