# generated using pymatgen
data_Li7SnS5Br
_symmetry_space_group_name_H-M   'P 1'
_cell_length_a   10.42979355
_cell_length_b   10.64358930
_cell_length_c   10.55495055
_cell_angle_alpha   90.24351441
_cell_angle_beta   88.73501489
_cell_angle_gamma   90.14794221
_symmetry_Int_Tables_number   1
_chemical_formula_structural   Li7SnS5Br
_chemical_formula_sum   'Li28 Sn4 S20 Br4'
_cell_volume   1171.40992656
_cell_formula_units_Z   4
loop_
 _symmetry_equiv_pos_site_id
 _symmetry_equiv_pos_as_xyz
  1  'x, y, z'
loop_
 _atom_site_type_symbol
 _atom_site_label
 _atom_site_symmetry_multiplicity
 _atom_site_fract_x
 _atom_site_fract_y
 _atom_site_fract_z
 _atom_site_occupancy
  Li  Li0  1  0.038031  0.300880  0.805522  1
  Li  Li1  1  0.006498  0.782618  0.706664  1
  Li  Li2  1  0.017273  0.271135  0.205993  1
  Li  Li3  1  0.998601  0.790394  0.316982  1
  Li  Li4  1  0.686422  0.978167  0.174901  1
  Li  Li5  1  0.685508  0.050955  0.833937  1
  Li  Li6  1  0.142627  0.041437  0.365316  1
  Li  Li7  1  0.339992  0.811272  0.028398  1
  Li  Li8  1  0.695635  0.776553  0.005706  1
  Li  Li9  1  0.203645  0.262507  0.993031  1
  Li  Li10  1  0.746668  0.470352  0.744941  1
  Li  Li11  1  0.885189  0.573978  0.138459  1
  Li  Li12  1  0.370094  0.596915  0.659430  1
  Li  Li13  1  0.246126  0.232366  0.553255  1
  Li  Li14  1  0.714193  0.299696  0.490009  1
  Li  Li15  1  0.201251  0.787830  0.517542  1
  Li  Li16  1  0.396063  0.327728  0.349378  1
  Li  Li17  1  0.520487  0.697839  0.296287  1
  Li  Li18  1  0.480976  0.261224  0.713889  1
  Li  Li19  1  0.523031  0.789142  0.808784  1
  Li  Li20  1  0.144534  0.587481  0.888238  1
  Li  Li21  1  0.193460  0.476900  0.184496  1
  Li  Li22  1  0.815307  0.032991  0.460461  1
  Li  Li23  1  0.807013  0.766715  0.507773  1
  Li  Li24  1  0.480223  0.165407  0.013659  1
  Li  Li25  1  0.833709  0.292002  -0.003212  1
  Li  Li26  1  0.331602  0.989352  0.814217  1
  Li  Li27  1  0.079452  0.042479  0.713672  1
  Sn  Sn28  1  0.013126  0.973764  0.013438  1
  Sn  Sn29  1  0.016177  0.480268  0.505055  1
  Sn  Sn30  1  0.503956  0.982883  0.506941  1
  Sn  Sn31  1  0.511617  0.476774  0.009605  1
  S  S32  1  0.150038  0.092600  0.145607  1
  S  S33  1  0.873552  0.835621  0.130795  1
  S  S34  1  0.902853  0.108979  0.868089  1
  S  S35  1  0.149952  0.847862  0.875377  1
  S  S36  1  0.139527  0.605986  0.649559  1
  S  S37  1  0.889100  0.338981  0.632082  1
  S  S38  1  0.882910  0.601747  0.372024  1
  S  S39  1  0.153023  0.347103  0.376737  1
  S  S40  1  0.649784  0.116519  0.619584  1
  S  S41  1  0.387643  0.837375  0.639626  1
  S  S42  1  0.357786  0.109801  0.396191  1
  S  S43  1  0.651511  0.866236  0.372867  1
  S  S44  1  0.649469  0.598036  0.138326  1
  S  S45  1  0.374963  0.336120  0.127103  1
  S  S46  1  0.383934  0.619701  0.889436  1
  S  S47  1  0.631516  0.325608  0.882047  1
  S  S48  1  0.255329  0.199157  0.771727  1
  S  S49  1  0.009411  0.920150  0.513534  1
  S  S50  1  0.534241  0.948519  0.976039  1
  S  S51  1  0.027499  0.427045  0.020748  1
  Br  Br52  1  0.760713  0.712336  0.754551  1
  Br  Br53  1  0.778507  0.201489  0.258325  1
  Br  Br54  1  0.268255  0.713985  0.263551  1
  Br  Br55  1  0.509997  0.444822  0.529085  1
