# generated using pymatgen
data_Li7PSe6
_symmetry_space_group_name_H-M   'P 1'
_cell_length_a   10.63398727
_cell_length_b   10.49109734
_cell_length_c   10.49109734
_cell_angle_alpha   91.41136015
_cell_angle_beta   88.40587726
_cell_angle_gamma   88.40587726
_symmetry_Int_Tables_number   1
_chemical_formula_structural   Li7PSe6
_chemical_formula_sum   'Li28 P4 Se24'
_cell_volume   1169.12603762
_cell_formula_units_Z   4
loop_
 _symmetry_equiv_pos_site_id
 _symmetry_equiv_pos_as_xyz
  1  'x, y, z'
loop_
 _atom_site_type_symbol
 _atom_site_label
 _atom_site_symmetry_multiplicity
 _atom_site_fract_x
 _atom_site_fract_y
 _atom_site_fract_z
 _atom_site_occupancy
  Li  Li0  1  0.022066  0.276663  0.797801  1
  Li  Li1  1  0.977558  0.841897  0.703193  1
  Li  Li2  1  0.977558  0.341897  0.203193  1
  Li  Li3  1  0.022066  0.776663  0.297801  1
  Li  Li4  1  0.870728  0.041653  0.308725  1
  Li  Li5  1  0.697903  0.982667  0.774452  1
  Li  Li6  1  0.200426  0.964735  0.302322  1
  Li  Li7  1  0.370728  0.808725  0.041653  1
  Li  Li8  1  0.700426  0.802322  0.964735  1
  Li  Li9  1  0.197903  0.274452  0.982667  1
  Li  Li10  1  0.870728  0.541653  0.808725  1
  Li  Li11  1  0.697903  0.482667  0.274452  1
  Li  Li12  1  0.200426  0.464735  0.802322  1
  Li  Li13  1  0.370728  0.308725  0.541653  1
  Li  Li14  1  0.700426  0.302322  0.464735  1
  Li  Li15  1  0.197903  0.774452  0.482667  1
  Li  Li16  1  0.522066  0.297801  0.276663  1
  Li  Li17  1  0.477558  0.703193  0.341897  1
  Li  Li18  1  0.477558  0.203193  0.841897  1
  Li  Li19  1  0.522066  0.797801  0.776663  1
  Li  Li20  1  0.313217  0.502381  0.295320  1
  Li  Li21  1  0.109840  0.654307  0.053418  1
  Li  Li22  1  0.609840  0.553418  0.654307  1
  Li  Li23  1  0.813217  0.795320  0.502381  1
  Li  Li24  1  0.609840  0.053418  0.154307  1
  Li  Li25  1  0.813217  0.295320  0.002381  1
  Li  Li26  1  0.313217  0.002381  0.795320  1
  Li  Li27  1  0.109840  0.154307  0.553418  1
  P  P28  1  0.009223  0.977869  0.000269  1
  P  P29  1  0.009223  0.477869  0.500269  1
  P  P30  1  0.509223  0.000269  0.477869  1
  P  P31  1  0.509223  0.500269  0.977869  1
  Se  Se32  1  0.102670  0.109183  0.134994  1
  Se  Se33  1  0.885869  0.847979  0.109965  1
  Se  Se34  1  0.895994  0.086727  0.862364  1
  Se  Se35  1  0.147848  0.849239  0.891929  1
  Se  Se36  1  0.102670  0.609183  0.634994  1
  Se  Se37  1  0.885869  0.347979  0.609965  1
  Se  Se38  1  0.895994  0.586727  0.362364  1
  Se  Se39  1  0.147848  0.349239  0.391929  1
  Se  Se40  1  0.602670  0.134994  0.609183  1
  Se  Se41  1  0.395994  0.862364  0.586727  1
  Se  Se42  1  0.385869  0.109965  0.347979  1
  Se  Se43  1  0.647848  0.891929  0.349239  1
  Se  Se44  1  0.602670  0.634994  0.109183  1
  Se  Se45  1  0.395994  0.362364  0.086727  1
  Se  Se46  1  0.385869  0.609965  0.847979  1
  Se  Se47  1  0.647848  0.391929  0.849239  1
  Se  Se48  1  0.251459  0.228847  0.742085  1
  Se  Se49  1  0.751459  0.742085  0.728847  1
  Se  Se50  1  0.751459  0.242085  0.228847  1
  Se  Se51  1  0.251459  0.728847  0.242085  1
  Se  Se52  1  0.015199  0.944156  0.477751  1
  Se  Se53  1  0.515199  0.977751  0.944156  1
  Se  Se54  1  0.015199  0.444156  0.977751  1
  Se  Se55  1  0.515199  0.477751  0.444156  1
