# generated using pymatgen
data_Li7GeS5I
_symmetry_space_group_name_H-M   'P 1'
_cell_length_a   10.52584369
_cell_length_b   10.42241624
_cell_length_c   10.42421862
_cell_angle_alpha   90.17127109
_cell_angle_beta   89.94299612
_cell_angle_gamma   88.29151428
_symmetry_Int_Tables_number   1
_chemical_formula_structural   Li7GeS5I
_chemical_formula_sum   'Li28 Ge4 S20 I4'
_cell_volume   1143.07187446
_cell_formula_units_Z   4
loop_
 _symmetry_equiv_pos_site_id
 _symmetry_equiv_pos_as_xyz
  1  'x, y, z'
loop_
 _atom_site_type_symbol
 _atom_site_label
 _atom_site_symmetry_multiplicity
 _atom_site_fract_x
 _atom_site_fract_y
 _atom_site_fract_z
 _atom_site_occupancy
  Li  Li0  1  0.024204  0.289146  0.768992  1
  Li  Li1  1  0.994118  0.711811  0.771739  1
  Li  Li2  1  0.000051  0.184646  0.333140  1
  Li  Li3  1  0.003021  0.792232  0.277179  1
  Li  Li4  1  0.807668  0.981745  0.282842  1
  Li  Li5  1  0.719997  0.984711  0.768956  1
  Li  Li6  1  0.201217  0.006347  0.284219  1
  Li  Li7  1  0.301780  0.782485  0.964154  1
  Li  Li8  1  0.744654  0.753580  0.964322  1
  Li  Li9  1  0.257745  0.225144  0.968703  1
  Li  Li10  1  0.777864  0.510407  0.768466  1
  Li  Li11  1  0.711504  0.507411  0.282928  1
  Li  Li12  1  0.226103  0.469576  0.776600  1
  Li  Li13  1  0.250544  0.232077  0.512632  1
  Li  Li14  1  0.678720  0.326450  0.521598  1
  Li  Li15  1  0.175938  0.821436  0.512090  1
  Li  Li16  1  0.446827  0.341074  0.320294  1
  Li  Li17  1  0.511949  0.684714  0.297987  1
  Li  Li18  1  0.477408  0.252940  0.737053  1
  Li  Li19  1  0.534091  0.773192  0.757351  1
  Li  Li20  1  0.193461  0.477352  0.174280  1
  Li  Li21  1  0.380505  0.609636  0.576579  1
  Li  Li22  1  0.686209  0.655068  0.519341  1
  Li  Li23  1  0.845556  0.834924  0.515903  1
  Li  Li24  1  0.566243  0.217919  0.040571  1
  Li  Li25  1  0.906291  0.263968  0.028131  1
  Li  Li26  1  0.309338  0.011972  0.759835  1
  Li  Li27  1  0.028165  0.031633  0.670125  1
  Ge  Ge28  1  0.005728  0.994073  0.978637  1
  Ge  Ge29  1  0.009437  0.496513  0.488458  1
  Ge  Ge30  1  0.508600  0.993275  0.482201  1
  Ge  Ge31  1  0.511326  0.495163  0.976499  1
  S  S32  1  0.103402  0.132687  0.108384  1
  S  S33  1  0.885736  0.867590  0.094803  1
  S  S34  1  0.888417  0.119264  0.844970  1
  S  S35  1  0.132641  0.883503  0.840034  1
  S  S36  1  0.139617  0.614092  0.611105  1
  S  S37  1  0.886342  0.374980  0.609687  1
  S  S38  1  0.881822  0.630862  0.377267  1
  S  S39  1  0.131277  0.366561  0.364270  1
  S  S40  1  0.618971  0.119613  0.611331  1
  S  S41  1  0.385344  0.860242  0.598395  1
  S  S42  1  0.383232  0.117498  0.357901  1
  S  S43  1  0.645237  0.858724  0.379499  1
  S  S44  1  0.622969  0.622473  0.100851  1
  S  S45  1  0.385966  0.366171  0.094816  1
  S  S46  1  0.392662  0.611320  0.836752  1
  S  S47  1  0.636879  0.356341  0.868651  1
  S  S48  1  0.247084  0.236619  0.739728  1
  S  S49  1  0.763744  0.747855  0.730049  1
  S  S50  1  0.014420  0.974316  0.439928  1
  S  S51  1  0.539474  0.501739  0.449217  1
  I  I52  1  0.747525  0.240334  0.241321  1
  I  I53  1  0.257298  0.738597  0.225467  1
  I  I54  1  0.499201  0.976340  0.957647  1
  I  I55  1  0.014477  0.495433  0.961902  1
