# generated using pymatgen
data_Li7SiS5I
_symmetry_space_group_name_H-M   'P 1'
_cell_length_a   10.30972161
_cell_length_b   10.32001343
_cell_length_c   10.24596169
_cell_angle_alpha   90.43080616
_cell_angle_beta   88.94306581
_cell_angle_gamma   90.01786804
_symmetry_Int_Tables_number   1
_chemical_formula_structural   Li7SiS5I
_chemical_formula_sum   'Li28 Si4 S20 I4'
_cell_volume   1089.91780567
_cell_formula_units_Z   4
loop_
 _symmetry_equiv_pos_site_id
 _symmetry_equiv_pos_as_xyz
  1  'x, y, z'
loop_
 _atom_site_type_symbol
 _atom_site_label
 _atom_site_symmetry_multiplicity
 _atom_site_fract_x
 _atom_site_fract_y
 _atom_site_fract_z
 _atom_site_occupancy
  Li  Li0  1  0.037585  0.280236  0.795575  1
  Li  Li1  1  0.995191  0.784845  0.691093  1
  Li  Li2  1  0.005066  0.280130  0.190100  1
  Li  Li3  1  0.003393  0.767939  0.306826  1
  Li  Li4  1  0.827527  0.974306  0.316476  1
  Li  Li5  1  0.688013  0.988054  0.826324  1
  Li  Li6  1  0.153394  0.036680  0.343867  1
  Li  Li7  1  0.292976  0.927213  0.042041  1
  Li  Li8  1  0.634629  0.839421  0.108391  1
  Li  Li9  1  0.221842  0.258231  0.975931  1
  Li  Li10  1  0.827756  0.477657  0.810978  1
  Li  Li11  1  0.855307  0.568710  0.131541  1
  Li  Li12  1  0.283877  0.457076  0.711117  1
  Li  Li13  1  0.278437  0.250476  0.514882  1
  Li  Li14  1  0.704471  0.303651  0.505401  1
  Li  Li15  1  0.203758  0.767192  0.504512  1
  Li  Li16  1  0.483094  0.289031  0.306578  1
  Li  Li17  1  0.512950  0.661544  0.319430  1
  Li  Li18  1  0.495217  0.283534  0.717501  1
  Li  Li19  1  0.477447  0.779703  0.821591  1
  Li  Li20  1  0.134158  0.612504  0.909067  1
  Li  Li21  1  0.192101  0.473380  0.182184  1
  Li  Li22  1  0.876683  0.091745  0.616052  1
  Li  Li23  1  0.790090  0.757614  0.498946  1
  Li  Li24  1  0.532994  0.181985  0.030933  1
  Li  Li25  1  0.823098  0.277103  0.990880  1
  Li  Li26  1  0.416406  0.043425  0.774620  1
  Li  Li27  1  0.173305  0.003583  0.679630  1
  Si  Si28  1  0.000571  0.964917  0.994674  1
  Si  Si29  1  0.004454  0.466846  0.496029  1
  Si  Si30  1  0.500343  0.980334  0.492784  1
  Si  Si31  1  0.502523  0.479827  0.001320  1
  S  S32  1  0.122141  0.085469  0.113471  1
  S  S33  1  0.881640  0.846208  0.118853  1
  S  S34  1  0.893863  0.089036  0.866631  1
  S  S35  1  0.129527  0.852096  0.873033  1
  S  S36  1  0.113489  0.587473  0.627028  1
  S  S37  1  0.892690  0.340805  0.623427  1
  S  S38  1  0.881491  0.579267  0.376267  1
  S  S39  1  0.126371  0.348441  0.373886  1
  S  S40  1  0.620236  0.101648  0.617213  1
  S  S41  1  0.377753  0.868884  0.620282  1
  S  S42  1  0.380540  0.094705  0.372834  1
  S  S43  1  0.625248  0.859855  0.373913  1
  S  S44  1  0.618977  0.598495  0.121313  1
  S  S45  1  0.383765  0.348347  0.114237  1
  S  S46  1  0.373544  0.583806  0.881469  1
  S  S47  1  0.630812  0.354563  0.887718  1
  S  S48  1  0.263338  0.221439  0.744323  1
  S  S49  1  0.002945  0.928070  0.494761  1
  S  S50  1  0.506488  0.965889  0.966385  1
  S  S51  1  0.007918  0.429504  0.998924  1
  I  I52  1  0.745298  0.723895  0.756307  1
  I  I53  1  0.744060  0.216991  0.245410  1
  I  I54  1  0.259069  0.727559  0.240611  1
  I  I55  1  0.490143  0.464443  0.510209  1
