# generated using pymatgen
data_Li7GeTe5I
_symmetry_space_group_name_H-M   'P 1'
_cell_length_a   11.56638696
_cell_length_b   11.64688111
_cell_length_c   11.88746308
_cell_angle_alpha   90.89327228
_cell_angle_beta   89.24625952
_cell_angle_gamma   88.02775425
_symmetry_Int_Tables_number   1
_chemical_formula_structural   Li7GeTe5I
_chemical_formula_sum   'Li28 Ge4 Te20 I4'
_cell_volume   1600.09454769
_cell_formula_units_Z   4
loop_
 _symmetry_equiv_pos_site_id
 _symmetry_equiv_pos_as_xyz
  1  'x, y, z'
loop_
 _atom_site_type_symbol
 _atom_site_label
 _atom_site_symmetry_multiplicity
 _atom_site_fract_x
 _atom_site_fract_y
 _atom_site_fract_z
 _atom_site_occupancy
  Li  Li0  1  0.012064  0.315075  0.800396  1
  Li  Li1  1  0.983776  0.730323  0.754774  1
  Li  Li2  1  0.004702  0.264564  0.176458  1
  Li  Li3  1  0.022406  0.813064  0.296155  1
  Li  Li4  1  0.835116  0.000873  0.300463  1
  Li  Li5  1  0.717343  0.980711  0.781840  1
  Li  Li6  1  0.140488  0.105287  0.345714  1
  Li  Li7  1  0.305222  0.874484  -0.000164  1
  Li  Li8  1  0.720560  0.766811  0.970205  1
  Li  Li9  1  0.226496  0.265324  0.977892  1
  Li  Li10  1  0.730594  0.514461  0.726287  1
  Li  Li11  1  0.722734  0.461360  0.305418  1
  Li  Li12  1  0.264029  0.480850  0.768225  1
  Li  Li13  1  0.308884  0.312185  0.529176  1
  Li  Li14  1  0.823435  0.182682  0.477584  1
  Li  Li15  1  0.194878  0.798420  0.487394  1
  Li  Li16  1  0.536644  0.242298  0.260020  1
  Li  Li17  1  0.514885  0.688157  0.280256  1
  Li  Li18  1  0.472914  0.196626  0.783031  1
  Li  Li19  1  0.512575  0.787246  0.799493  1
  Li  Li20  1  0.327444  0.491674  0.305491  1
  Li  Li21  1  0.076654  0.545415  0.213225  1
  Li  Li22  1  0.589707  0.716108  0.545118  1
  Li  Li23  1  0.835470  0.812334  0.513135  1
  Li  Li24  1  0.774553  0.363351  0.036442  1
  Li  Li25  1  0.737407  0.064282  0.070812  1
  Li  Li26  1  0.257684  0.053822  0.598585  1
  Li  Li27  1  0.018074  0.060321  0.704435  1
  Ge  Ge28  1  0.016626  0.990929  0.985510  1
  Ge  Ge29  1  0.010679  0.488042  0.497432  1
  Ge  Ge30  1  0.516047  0.990274  0.495642  1
  Ge  Ge31  1  0.500847  0.495494  0.997311  1
  Te  Te32  1  0.171084  0.082159  0.114407  1
  Te  Te33  1  0.885650  0.861385  0.109623  1
  Te  Te34  1  0.871746  0.135073  0.885095  1
  Te  Te35  1  0.138790  0.887967  0.826095  1
  Te  Te36  1  0.142487  0.613682  0.619983  1
  Te  Te37  1  0.876725  0.362012  0.616689  1
  Te  Te38  1  0.892725  0.620719  0.360265  1
  Te  Te39  1  0.141131  0.359898  0.357079  1
  Te  Te40  1  0.636934  0.124022  0.619421  1
  Te  Te41  1  0.389515  0.848662  0.611199  1
  Te  Te42  1  0.374428  0.128539  0.388110  1
  Te  Te43  1  0.649170  0.860420  0.363623  1
  Te  Te44  1  0.661470  0.593206  0.114621  1
  Te  Te45  1  0.384873  0.356435  0.122165  1
  Te  Te46  1  0.359830  0.644633  0.904518  1
  Te  Te47  1  0.618592  0.363803  0.854239  1
  Te  Te48  1  0.238296  0.245626  0.742249  1
  Te  Te49  1  0.746389  0.746420  0.729722  1
  Te  Te50  1  0.775424  0.228005  0.245302  1
  Te  Te51  1  0.007761  0.977210  0.478320  1
  I  I52  1  0.253346  0.720080  0.258700  1
  I  I53  1  0.538746  0.969834  0.962747  1
  I  I54  1  0.015880  0.438267  0.010707  1
  I  I55  1  0.518073  0.504874  0.447147  1
