# generated using pymatgen
data_Li7SnS5Cl
_symmetry_space_group_name_H-M   'P 1'
_cell_length_a   11.26047309
_cell_length_b   10.34744202
_cell_length_c   10.34744202
_cell_angle_alpha   87.44651723
_cell_angle_beta   88.68651342
_cell_angle_gamma   88.68651342
_symmetry_Int_Tables_number   1
_chemical_formula_structural   Li7SnS5Cl
_chemical_formula_sum   'Li28 Sn4 S20 Cl4'
_cell_volume   1203.85068899
_cell_formula_units_Z   4
loop_
 _symmetry_equiv_pos_site_id
 _symmetry_equiv_pos_as_xyz
  1  'x, y, z'
loop_
 _atom_site_type_symbol
 _atom_site_label
 _atom_site_symmetry_multiplicity
 _atom_site_fract_x
 _atom_site_fract_y
 _atom_site_fract_z
 _atom_site_occupancy
  Li  Li0  1  0.983744  0.309943  0.853171  1
  Li  Li1  1  -0.000948  0.762954  0.721028  1
  Li  Li2  1  -0.000948  0.262954  0.221028  1
  Li  Li3  1  0.983744  0.809943  0.353171  1
  Li  Li4  1  0.769578  0.941356  0.223277  1
  Li  Li5  1  0.675049  0.068077  0.845354  1
  Li  Li6  1  0.343841  0.995002  0.123220  1
  Li  Li7  1  0.269578  0.723277  0.941356  1
  Li  Li8  1  0.843841  0.623220  0.995002  1
  Li  Li9  1  0.175049  0.345354  0.068077  1
  Li  Li10  1  0.769578  0.441356  0.723277  1
  Li  Li11  1  0.675049  0.568077  0.345354  1
  Li  Li12  1  0.343841  0.495002  0.623220  1
  Li  Li13  1  0.269578  0.223277  0.441356  1
  Li  Li14  1  0.843841  0.123220  0.495002  1
  Li  Li15  1  0.175049  0.845354  0.568077  1
  Li  Li16  1  0.483744  0.353171  0.309943  1
  Li  Li17  1  0.499052  0.721028  0.262954  1
  Li  Li18  1  0.499052  0.221028  0.762954  1
  Li  Li19  1  0.483744  0.853171  0.809943  1
  Li  Li20  1  0.310019  0.544033  0.284186  1
  Li  Li21  1  -0.000386  0.557949  0.210072  1
  Li  Li22  1  0.499614  0.710072  0.557949  1
  Li  Li23  1  0.810019  0.784186  0.544033  1
  Li  Li24  1  0.499614  0.210072  0.057949  1
  Li  Li25  1  0.810019  0.284186  0.044033  1
  Li  Li26  1  0.310019  0.044033  0.784186  1
  Li  Li27  1  -0.000386  0.057949  0.710072  1
  Sn  Sn28  1  0.029707  0.979032  0.017934  1
  Sn  Sn29  1  0.029707  0.479032  0.517934  1
  Sn  Sn30  1  0.529707  0.017934  0.479032  1
  Sn  Sn31  1  0.529707  0.517934  0.979032  1
  S  S32  1  0.151702  0.111993  0.140612  1
  S  S33  1  0.930582  0.804821  0.134759  1
  S  S34  1  0.879571  0.106487  0.902440  1
  S  S35  1  0.146446  0.893970  0.838535  1
  S  S36  1  0.151702  0.611993  0.640612  1
  S  S37  1  0.930582  0.304821  0.634759  1
  S  S38  1  0.879571  0.606487  0.402440  1
  S  S39  1  0.146446  0.393970  0.338535  1
  S  S40  1  0.651702  0.140612  0.611993  1
  S  S41  1  0.379571  0.902440  0.606487  1
  S  S42  1  0.430582  0.134759  0.304821  1
  S  S43  1  0.646446  0.838535  0.393970  1
  S  S44  1  0.651702  0.640612  0.111993  1
  S  S45  1  0.379571  0.402440  0.106487  1
  S  S46  1  0.430582  0.634759  0.804821  1
  S  S47  1  0.646446  0.338535  0.893970  1
  S  S48  1  0.974999  0.930144  0.535169  1
  S  S49  1  0.474999  0.035169  0.930144  1
  S  S50  1  0.974999  0.430144  0.035169  1
  S  S51  1  0.474999  0.535169  0.430144  1
  Cl  Cl52  1  0.306094  0.259466  0.667907  1
  Cl  Cl53  1  0.806094  0.667907  0.759466  1
  Cl  Cl54  1  0.806094  0.167907  0.259466  1
  Cl  Cl55  1  0.306094  0.759466  0.167907  1
