# generated using pymatgen
data_Li7SnS5Br
_symmetry_space_group_name_H-M   'P 1'
_cell_length_a   10.56195376
_cell_length_b   10.57903990
_cell_length_c   10.57903990
_cell_angle_alpha   91.09571451
_cell_angle_beta   89.26491671
_cell_angle_gamma   89.26491671
_symmetry_Int_Tables_number   1
_chemical_formula_structural   Li7SnS5Br
_chemical_formula_sum   'Li28 Sn4 S20 Br4'
_cell_volume   1181.63804518
_cell_formula_units_Z   4
loop_
 _symmetry_equiv_pos_site_id
 _symmetry_equiv_pos_as_xyz
  1  'x, y, z'
loop_
 _atom_site_type_symbol
 _atom_site_label
 _atom_site_symmetry_multiplicity
 _atom_site_fract_x
 _atom_site_fract_y
 _atom_site_fract_z
 _atom_site_occupancy
  Li  Li0  1  0.023396  0.302410  0.781309  1
  Li  Li1  1  0.987213  0.741546  0.757430  1
  Li  Li2  1  0.987213  0.241546  0.257430  1
  Li  Li3  1  0.023396  0.802410  0.281309  1
  Li  Li4  1  0.750406  0.012576  0.240608  1
  Li  Li5  1  0.726369  0.990277  0.774090  1
  Li  Li6  1  0.250277  0.970781  0.256673  1
  Li  Li7  1  0.250406  0.740608  0.012576  1
  Li  Li8  1  0.750277  0.756673  0.970781  1
  Li  Li9  1  0.226369  0.274090  0.990277  1
  Li  Li10  1  0.750406  0.512576  0.740608  1
  Li  Li11  1  0.726369  0.490277  0.274090  1
  Li  Li12  1  0.250277  0.470781  0.756673  1
  Li  Li13  1  0.250406  0.240608  0.512576  1
  Li  Li14  1  0.750277  0.256673  0.470781  1
  Li  Li15  1  0.226369  0.774090  0.490277  1
  Li  Li16  1  0.523396  0.281309  0.302410  1
  Li  Li17  1  0.487213  0.757430  0.241546  1
  Li  Li18  1  0.487213  0.257430  0.741546  1
  Li  Li19  1  0.523396  0.781309  0.802410  1
  Li  Li20  1  0.330356  0.506937  0.300427  1
  Li  Li21  1  0.078250  0.547974  0.210897  1
  Li  Li22  1  0.578250  0.710897  0.547974  1
  Li  Li23  1  0.830356  0.800427  0.506937  1
  Li  Li24  1  0.578250  0.210897  0.047974  1
  Li  Li25  1  0.830356  0.300427  0.006937  1
  Li  Li26  1  0.330356  0.006937  0.800427  1
  Li  Li27  1  0.078250  0.047974  0.710897  1
  Sn  Sn28  1  0.011680  0.000038  0.998527  1
  Sn  Sn29  1  0.011680  0.500038  0.498527  1
  Sn  Sn30  1  0.511680  0.998527  0.500038  1
  Sn  Sn31  1  0.511680  0.498527  0.000038  1
  S  S32  1  0.139575  0.123148  0.135678  1
  S  S33  1  0.878831  0.865657  0.118692  1
  S  S34  1  0.895807  0.126807  0.850981  1
  S  S35  1  0.146209  0.875266  0.856476  1
  S  S36  1  0.139575  0.623148  0.635678  1
  S  S37  1  0.878831  0.365657  0.618692  1
  S  S38  1  0.895807  0.626807  0.350981  1
  S  S39  1  0.146209  0.375266  0.356476  1
  S  S40  1  0.639575  0.135678  0.623148  1
  S  S41  1  0.395807  0.850981  0.626807  1
  S  S42  1  0.378831  0.118692  0.365657  1
  S  S43  1  0.646209  0.856476  0.375266  1
  S  S44  1  0.639575  0.635678  0.123148  1
  S  S45  1  0.395807  0.350981  0.126807  1
  S  S46  1  0.378831  0.618692  0.865657  1
  S  S47  1  0.646209  0.356476  0.875266  1
  S  S48  1  0.250807  0.233279  0.746580  1
  S  S49  1  0.750807  0.746580  0.733279  1
  S  S50  1  0.750807  0.246580  0.233279  1
  S  S51  1  0.250807  0.733279  0.246580  1
  Br  Br52  1  0.030825  0.952254  0.485572  1
  Br  Br53  1  0.530825  0.985572  0.952254  1
  Br  Br54  1  0.030825  0.452254  0.985572  1
  Br  Br55  1  0.530825  0.485572  0.452254  1
