# generated using pymatgen
data_Li7SnS5I
_symmetry_space_group_name_H-M   'P 1'
_cell_length_a   10.69425647
_cell_length_b   10.62965587
_cell_length_c   10.63024153
_cell_angle_alpha   90.08843647
_cell_angle_beta   89.77473827
_cell_angle_gamma   88.60943085
_symmetry_Int_Tables_number   1
_chemical_formula_structural   Li7SnS5I
_chemical_formula_sum   'Li28 Sn4 S20 I4'
_cell_volume   1208.03932592
_cell_formula_units_Z   4
loop_
 _symmetry_equiv_pos_site_id
 _symmetry_equiv_pos_as_xyz
  1  'x, y, z'
loop_
 _atom_site_type_symbol
 _atom_site_label
 _atom_site_symmetry_multiplicity
 _atom_site_fract_x
 _atom_site_fract_y
 _atom_site_fract_z
 _atom_site_occupancy
  Li  Li0  1  0.026969  0.286781  0.767646  1
  Li  Li1  1  0.995417  0.706568  0.772110  1
  Li  Li2  1  0.018421  0.177608  0.314390  1
  Li  Li3  1  0.007227  0.791733  0.279445  1
  Li  Li4  1  0.813313  0.981111  0.284792  1
  Li  Li5  1  0.722407  0.986017  0.769280  1
  Li  Li6  1  0.212880  0.995320  0.289176  1
  Li  Li7  1  0.294616  0.784947  0.953731  1
  Li  Li8  1  0.754130  0.750368  0.964419  1
  Li  Li9  1  0.257112  0.228979  0.968237  1
  Li  Li10  1  0.769466  0.510119  0.760124  1
  Li  Li11  1  0.710498  0.507784  0.286271  1
  Li  Li12  1  0.231549  0.469119  0.775035  1
  Li  Li13  1  0.248690  0.223901  0.517466  1
  Li  Li14  1  0.675094  0.330787  0.521080  1
  Li  Li15  1  0.172301  0.826987  0.534765  1
  Li  Li16  1  0.415874  0.359551  0.334063  1
  Li  Li17  1  0.516671  0.688637  0.299615  1
  Li  Li18  1  0.482014  0.238675  0.747949  1
  Li  Li19  1  0.535346  0.774684  0.757523  1
  Li  Li20  1  0.184221  0.465817  0.169664  1
  Li  Li21  1  0.383340  0.614942  0.576137  1
  Li  Li22  1  0.686477  0.658566  0.516496  1
  Li  Li23  1  0.851384  0.830364  0.511839  1
  Li  Li24  1  0.553614  0.212970  0.057802  1
  Li  Li25  1  0.829606  0.295155  0.978373  1
  Li  Li26  1  0.302960  0.011381  0.758390  1
  Li  Li27  1  0.015053  0.027786  0.665700  1
  Sn  Sn28  1  0.009873  0.996161  0.983560  1
  Sn  Sn29  1  0.011921  0.494393  0.489514  1
  Sn  Sn30  1  0.514149  0.998344  0.482818  1
  Sn  Sn31  1  0.510039  0.502218  0.986175  1
  S  S32  1  0.133020  0.123762  0.117647  1
  S  S33  1  0.882133  0.860955  0.104387  1
  S  S34  1  0.887936  0.123492  0.837671  1
  S  S35  1  0.131390  0.880009  0.824846  1
  S  S36  1  0.147834  0.617560  0.619757  1
  S  S37  1  0.878663  0.368729  0.617452  1
  S  S38  1  0.878104  0.635212  0.372845  1
  S  S39  1  0.145911  0.357957  0.363757  1
  S  S40  1  0.631832  0.129722  0.618927  1
  S  S41  1  0.384568  0.856772  0.604322  1
  S  S42  1  0.379408  0.127952  0.355802  1
  S  S43  1  0.656980  0.853976  0.378319  1
  S  S44  1  0.635737  0.633307  0.111464  1
  S  S45  1  0.379459  0.360379  0.104501  1
  S  S46  1  0.390503  0.618180  0.831886  1
  S  S47  1  0.638201  0.350044  0.871930  1
  S  S48  1  0.251703  0.238027  0.741895  1
  S  S49  1  0.764467  0.746203  0.730800  1
  S  S50  1  0.019685  0.970287  0.440045  1
  S  S51  1  0.540514  0.506239  0.448668  1
  I  I52  1  0.760499  0.241161  0.232426  1
  I  I53  1  0.259004  0.730770  0.216094  1
  I  I54  1  0.496646  0.979784  0.948908  1
  I  I55  1  0.013166  0.487526  0.957846  1
