# generated using pymatgen
data_Li7GeS5Br
_symmetry_space_group_name_H-M   'P 1'
_cell_length_a   10.35822883
_cell_length_b   10.30834387
_cell_length_c   10.17326301
_cell_angle_alpha   90.16145328
_cell_angle_beta   89.07440549
_cell_angle_gamma   89.52629403
_symmetry_Int_Tables_number   1
_chemical_formula_structural   Li7GeS5Br
_chemical_formula_sum   'Li28 Ge4 S20 Br4'
_cell_volume   1086.07861756
_cell_formula_units_Z   4
loop_
 _symmetry_equiv_pos_site_id
 _symmetry_equiv_pos_as_xyz
  1  'x, y, z'
loop_
 _atom_site_type_symbol
 _atom_site_label
 _atom_site_symmetry_multiplicity
 _atom_site_fract_x
 _atom_site_fract_y
 _atom_site_fract_z
 _atom_site_occupancy
  Li  Li0  1  0.030581  0.298089  0.810120  1
  Li  Li1  1  -0.000051  0.781484  0.702190  1
  Li  Li2  1  0.000678  0.282097  0.184759  1
  Li  Li3  1  0.009638  0.789648  0.301485  1
  Li  Li4  1  0.836800  0.998090  0.297465  1
  Li  Li5  1  0.679303  0.013994  0.827788  1
  Li  Li6  1  0.186584  0.996059  0.323750  1
  Li  Li7  1  0.325030  0.804027  0.010182  1
  Li  Li8  1  0.632963  0.842868  0.101562  1
  Li  Li9  1  0.301687  0.151714  0.980639  1
  Li  Li10  1  0.833088  0.501050  0.804562  1
  Li  Li11  1  0.842975  0.594661  0.111617  1
  Li  Li12  1  0.317225  0.478362  0.681849  1
  Li  Li13  1  0.240270  0.211864  0.520938  1
  Li  Li14  1  0.692600  0.319256  0.487561  1
  Li  Li15  1  0.201690  0.778428  0.511904  1
  Li  Li16  1  0.375366  0.357051  0.327994  1
  Li  Li17  1  0.513159  0.671196  0.343846  1
  Li  Li18  1  0.490914  0.244745  0.748718  1
  Li  Li19  1  0.515622  0.767832  0.794202  1
  Li  Li20  1  0.216921  0.435240  0.951476  1
  Li  Li21  1  0.093769  0.529337  0.207253  1
  Li  Li22  1  0.868053  0.105254  0.595964  1
  Li  Li23  1  0.807530  0.775638  0.495131  1
  Li  Li24  1  0.513941  0.135627  0.150992  1
  Li  Li25  1  0.809336  0.284720  0.995328  1
  Li  Li26  1  0.345180  0.992870  0.782908  1
  Li  Li27  1  0.097329  0.040771  0.710130  1
  Ge  Ge28  1  0.010092  0.972716  0.991964  1
  Ge  Ge29  1  0.013774  0.476267  0.495290  1
  Ge  Ge30  1  0.514595  0.986969  0.485280  1
  Ge  Ge31  1  0.511403  0.481974  0.996353  1
  S  S32  1  0.123593  0.095649  0.125629  1
  S  S33  1  0.879860  0.847428  0.113575  1
  S  S34  1  0.896669  0.101125  0.852907  1
  S  S35  1  0.147881  0.865042  0.859111  1
  S  S36  1  0.124099  0.595715  0.635565  1
  S  S37  1  0.886625  0.349075  0.618759  1
  S  S38  1  0.896855  0.597583  0.357534  1
  S  S39  1  0.139317  0.352967  0.362928  1
  S  S40  1  0.634068  0.116275  0.612569  1
  S  S41  1  0.398213  0.850133  0.606490  1
  S  S42  1  0.385079  0.110494  0.362377  1
  S  S43  1  0.645259  0.868341  0.354239  1
  S  S44  1  0.612438  0.608950  0.136792  1
  S  S45  1  0.381312  0.337808  0.098229  1
  S  S46  1  0.371079  0.601617  0.879575  1
  S  S47  1  0.643910  0.372330  0.862221  1
  S  S48  1  0.255720  0.226481  0.752401  1
  S  S49  1  0.011470  0.940841  0.493858  1
  S  S50  1  0.491625  0.973160  0.965218  1
  S  S51  1  0.988088  0.441987  0.004542  1
  Br  Br52  1  0.761381  0.741097  0.742230  1
  Br  Br53  1  0.751973  0.222673  0.241421  1
  Br  Br54  1  0.249315  0.736228  0.256328  1
  Br  Br55  1  0.496129  0.472885  0.500077  1
