# generated using pymatgen
data_Li7GeS5Br
_symmetry_space_group_name_H-M   'P 1'
_cell_length_a   10.45636252
_cell_length_b   10.25285405
_cell_length_c   10.25177389
_cell_angle_alpha   89.80973453
_cell_angle_beta   90.33189779
_cell_angle_gamma   88.92199208
_symmetry_Int_Tables_number   1
_chemical_formula_structural   Li7GeS5Br
_chemical_formula_sum   'Li28 Ge4 S20 Br4'
_cell_volume   1098.84822311
_cell_formula_units_Z   4
loop_
 _symmetry_equiv_pos_site_id
 _symmetry_equiv_pos_as_xyz
  1  'x, y, z'
loop_
 _atom_site_type_symbol
 _atom_site_label
 _atom_site_symmetry_multiplicity
 _atom_site_fract_x
 _atom_site_fract_y
 _atom_site_fract_z
 _atom_site_occupancy
  Li  Li0  1  0.035241  0.313986  0.787714  1
  Li  Li1  1  0.985823  0.709650  0.771340  1
  Li  Li2  1  0.996622  0.188912  0.289996  1
  Li  Li3  1  0.009968  0.817074  0.294692  1
  Li  Li4  1  0.766252  0.010642  0.236904  1
  Li  Li5  1  0.727985  0.981310  0.791790  1
  Li  Li6  1  0.211558  0.997614  0.294160  1
  Li  Li7  1  0.233818  0.729873  0.988575  1
  Li  Li8  1  0.788595  0.705322  0.971306  1
  Li  Li9  1  0.266919  0.254212  0.978875  1
  Li  Li10  1  0.746273  0.506250  0.729771  1
  Li  Li11  1  0.721043  0.485233  0.293101  1
  Li  Li12  1  0.282277  0.471640  0.718264  1
  Li  Li13  1  0.225697  0.208123  0.509856  1
  Li  Li14  1  0.793256  0.207400  0.476592  1
  Li  Li15  1  0.187244  0.833860  0.546706  1
  Li  Li16  1  0.537775  0.279213  0.321965  1
  Li  Li17  1  0.512361  0.813648  0.187176  1
  Li  Li18  1  0.491573  0.267335  0.718694  1
  Li  Li19  1  0.533046  0.778288  0.811594  1
  Li  Li20  1  0.328362  0.496667  0.314753  1
  Li  Li21  1  0.021174  0.512746  0.204819  1
  Li  Li22  1  0.587092  0.711773  0.546903  1
  Li  Li23  1  0.840924  0.830060  0.514627  1
  Li  Li24  1  0.582011  0.209446  0.062108  1
  Li  Li25  1  0.828522  0.304457  0.014567  1
  Li  Li26  1  0.324220  0.010693  0.792070  1
  Li  Li27  1  0.040789  0.052056  0.685154  1
  Ge  Ge28  1  0.014248  0.002581  0.985743  1
  Ge  Ge29  1  0.012153  0.498855  0.494302  1
  Ge  Ge30  1  0.516104  0.996133  0.498335  1
  Ge  Ge31  1  0.514106  0.495666  0.001903  1
  S  S32  1  0.135436  0.124081  0.112798  1
  S  S33  1  0.892831  0.868814  0.100465  1
  S  S34  1  0.895308  0.133152  0.856460  1
  S  S35  1  0.131839  0.882505  0.843433  1
  S  S36  1  0.135394  0.619444  0.620104  1
  S  S37  1  0.891594  0.367509  0.611383  1
  S  S38  1  0.892492  0.628082  0.363069  1
  S  S39  1  0.133479  0.375899  0.358807  1
  S  S40  1  0.639524  0.120240  0.620992  1
  S  S41  1  0.405937  0.858036  0.623564  1
  S  S42  1  0.388758  0.114904  0.369268  1
  S  S43  1  0.644432  0.867635  0.375294  1
  S  S44  1  0.634656  0.625439  0.121194  1
  S  S45  1  0.405510  0.360404  0.131997  1
  S  S46  1  0.386711  0.610802  0.868760  1
  S  S47  1  0.636447  0.360361  0.880982  1
  S  S48  1  0.257413  0.238969  0.743176  1
  S  S49  1  0.754423  0.744279  0.733870  1
  S  S50  1  0.759286  0.245685  0.239894  1
  S  S51  1  0.029785  0.992000  0.456432  1
  Br  Br52  1  0.259524  0.743534  0.236385  1
  Br  Br53  1  0.517463  0.979453  0.976010  1
  Br  Br54  1  0.988668  0.505286  0.965003  1
  Br  Br55  1  0.520057  0.478550  0.482086  1
