# generated using pymatgen
data_Li7GeS5Br
_symmetry_space_group_name_H-M   'P 1'
_cell_length_a   10.33271841
_cell_length_b   10.22144194
_cell_length_c   10.22144194
_cell_angle_alpha   89.87792269
_cell_angle_beta   88.88056622
_cell_angle_gamma   88.88056622
_symmetry_Int_Tables_number   1
_chemical_formula_structural   Li7GeS5Br
_chemical_formula_sum   'Li28 Ge4 S20 Br4'
_cell_volume   1079.12677757
_cell_formula_units_Z   4
loop_
 _symmetry_equiv_pos_site_id
 _symmetry_equiv_pos_as_xyz
  1  'x, y, z'
loop_
 _atom_site_type_symbol
 _atom_site_label
 _atom_site_symmetry_multiplicity
 _atom_site_fract_x
 _atom_site_fract_y
 _atom_site_fract_z
 _atom_site_occupancy
  Li  Li0  1  0.040515  0.289681  0.781081  1
  Li  Li1  1  0.027545  0.822516  0.676677  1
  Li  Li2  1  0.027545  0.322516  0.176677  1
  Li  Li3  1  0.040515  0.789681  0.281081  1
  Li  Li4  1  0.853096  0.000829  0.296161  1
  Li  Li5  1  0.720827  0.980679  0.811538  1
  Li  Li6  1  0.157764  0.096914  0.355859  1
  Li  Li7  1  0.353096  0.796161  0.000829  1
  Li  Li8  1  0.657764  0.855859  0.096914  1
  Li  Li9  1  0.220827  0.311538  0.980679  1
  Li  Li10  1  0.853096  0.500829  0.796161  1
  Li  Li11  1  0.720827  0.480679  0.311538  1
  Li  Li12  1  0.157764  0.596914  0.855859  1
  Li  Li13  1  0.353096  0.296161  0.500829  1
  Li  Li14  1  0.657764  0.355859  0.596914  1
  Li  Li15  1  0.220827  0.811538  0.480679  1
  Li  Li16  1  0.540515  0.281081  0.289681  1
  Li  Li17  1  0.527545  0.676677  0.322516  1
  Li  Li18  1  0.527545  0.176677  0.822516  1
  Li  Li19  1  0.540515  0.781081  0.789681  1
  Li  Li20  1  0.333596  0.479785  0.281517  1
  Li  Li21  1  0.897764  0.610968  0.090248  1
  Li  Li22  1  0.397764  0.590248  0.610968  1
  Li  Li23  1  0.833596  0.781517  0.479785  1
  Li  Li24  1  0.397764  0.090248  0.110968  1
  Li  Li25  1  0.833596  0.281517  0.979785  1
  Li  Li26  1  0.333596  0.979785  0.781517  1
  Li  Li27  1  0.897764  0.110968  0.590248  1
  Ge  Ge28  1  0.034236  0.980915  0.983078  1
  Ge  Ge29  1  0.034236  0.480915  0.483078  1
  Ge  Ge30  1  0.534236  0.983078  0.480915  1
  Ge  Ge31  1  0.534236  0.483078  0.980915  1
  S  S32  1  0.150908  0.114222  0.107835  1
  S  S33  1  0.901940  0.859788  0.107131  1
  S  S34  1  0.914299  0.100096  0.844171  1
  S  S35  1  0.163132  0.845902  0.866438  1
  S  S36  1  0.150908  0.614222  0.607835  1
  S  S37  1  0.901940  0.359788  0.607131  1
  S  S38  1  0.914299  0.600096  0.344171  1
  S  S39  1  0.163132  0.345902  0.366438  1
  S  S40  1  0.650908  0.107835  0.614222  1
  S  S41  1  0.414299  0.844171  0.600096  1
  S  S42  1  0.401940  0.107131  0.359788  1
  S  S43  1  0.663132  0.866438  0.345902  1
  S  S44  1  0.650908  0.607835  0.114222  1
  S  S45  1  0.414299  0.344171  0.100096  1
  S  S46  1  0.401940  0.607131  0.859788  1
  S  S47  1  0.663132  0.366438  0.845902  1
  S  S48  1  0.016520  0.943287  0.465694  1
  S  S49  1  0.516520  0.965694  0.943287  1
  S  S50  1  0.016520  0.443287  0.965694  1
  S  S51  1  0.516520  0.465694  0.443287  1
  Br  Br52  1  0.287859  0.228012  0.741868  1
  Br  Br53  1  0.787859  0.741868  0.728012  1
  Br  Br54  1  0.787859  0.241868  0.228012  1
  Br  Br55  1  0.287859  0.728012  0.241868  1
