# generated using pymatgen
data_Li23P4S19Cl5
_symmetry_space_group_name_H-M   'P 1'
_cell_length_a   10.17247869
_cell_length_b   10.17247869
_cell_length_c   9.93506215
_cell_angle_alpha   91.54773444
_cell_angle_beta   91.54773444
_cell_angle_gamma   92.26045222
_symmetry_Int_Tables_number   1
_chemical_formula_structural   Li23P4S19Cl5
_chemical_formula_sum   'Li23 P4 S19 Cl5'
_cell_volume   1026.49301959
_cell_formula_units_Z   1
loop_
 _symmetry_equiv_pos_site_id
 _symmetry_equiv_pos_as_xyz
  1  'x, y, z'
loop_
 _atom_site_type_symbol
 _atom_site_label
 _atom_site_symmetry_multiplicity
 _atom_site_fract_x
 _atom_site_fract_y
 _atom_site_fract_z
 _atom_site_occupancy
  Cl  Cl0  1  0.256800  0.256800  0.750411  1
  Cl  Cl1  1  0.748138  0.748138  0.758177  1
  Cl  Cl2  1  0.259390  0.779394  0.236949  1
  Cl  Cl3  1  0.518342  0.518342  0.537932  1
  Cl  Cl4  1  0.779394  0.259390  0.236949  1
  Li  Li5  1  0.016877  0.202037  0.668862  1
  Li  Li6  1  0.507328  0.196621  0.189381  1
  Li  Li7  1  0.978971  0.694818  0.830231  1
  Li  Li8  1  0.487750  0.844169  0.168165  1
  Li  Li9  1  0.996014  0.205644  0.337581  1
  Li  Li10  1  0.496143  0.179402  0.834088  1
  Li  Li11  1  0.027870  0.720509  0.195383  1
  Li  Li12  1  0.497421  0.700408  0.672226  1
  Li  Li13  1  0.720509  0.027870  0.195383  1
  Li  Li14  1  0.700408  0.497421  0.672226  1
  Li  Li15  1  0.694818  0.978971  0.830231  1
  Li  Li16  1  0.844169  0.487750  0.168165  1
  Li  Li17  1  0.205644  0.996014  0.337581  1
  Li  Li18  1  0.179402  0.496143  0.834088  1
  Li  Li19  1  0.202037  0.016877  0.668862  1
  Li  Li20  1  0.196621  0.507328  0.189381  1
  Li  Li21  1  0.216971  0.728531  0.008778  1
  Li  Li22  1  0.355691  0.355691  0.526628  1
  Li  Li23  1  0.738160  0.738160  0.988143  1
  Li  Li24  1  0.802878  0.019573  0.513673  1
  Li  Li25  1  0.239768  0.239768  0.980285  1
  Li  Li26  1  0.019573  0.802878  0.513673  1
  Li  Li27  1  0.728531  0.216971  0.008778  1
  P  P28  1  0.009491  0.009491  0.998655  1
  P  P29  1  0.016582  0.508558  0.505546  1
  P  P30  1  0.508558  0.016582  0.505546  1
  P  P31  1  0.506401  0.506401  0.005954  1
  S  S32  1  0.122085  0.122085  0.135590  1
  S  S33  1  0.121957  0.633266  0.639811  1
  S  S34  1  0.633266  0.121957  0.639811  1
  S  S35  1  0.617830  0.617830  0.144529  1
  S  S36  1  0.888948  0.888948  0.109934  1
  S  S37  1  0.892075  0.383097  0.600639  1
  S  S38  1  0.383097  0.892075  0.600639  1
  S  S39  1  0.383073  0.383073  0.112241  1
  S  S40  1  0.901205  0.126319  0.876475  1
  S  S41  1  0.907463  0.626329  0.383311  1
  S  S42  1  0.399489  0.146100  0.397177  1
  S  S43  1  0.395042  0.625409  0.888319  1
  S  S44  1  0.126319  0.901205  0.876475  1
  S  S45  1  0.146100  0.399489  0.397177  1
  S  S46  1  0.626329  0.907463  0.383311  1
  S  S47  1  0.625409  0.395042  0.888319  1
  S  S48  1  0.030943  0.030943  0.498864  1
  S  S49  1  0.036154  0.556568  0.018180  1
  S  S50  1  0.556568  0.036154  0.018180  1
