# generated using pymatgen
data_Li7GeS5Cl
_symmetry_space_group_name_H-M   'P 1'
_cell_length_a   10.35774795
_cell_length_b   10.30843813
_cell_length_c   10.30843813
_cell_angle_alpha   91.66292974
_cell_angle_beta   89.35712202
_cell_angle_gamma   89.35712202
_symmetry_Int_Tables_number   1
_chemical_formula_structural   Li7GeS5Cl
_chemical_formula_sum   'Li28 Ge4 S20 Cl4'
_cell_volume   1100.04845957
_cell_formula_units_Z   4
loop_
 _symmetry_equiv_pos_site_id
 _symmetry_equiv_pos_as_xyz
  1  'x, y, z'
loop_
 _atom_site_type_symbol
 _atom_site_label
 _atom_site_symmetry_multiplicity
 _atom_site_fract_x
 _atom_site_fract_y
 _atom_site_fract_z
 _atom_site_occupancy
  Li  Li0  1  0.023914  0.307804  0.789423  1
  Li  Li1  1  0.985597  0.740915  0.753438  1
  Li  Li2  1  0.985597  0.240915  0.253438  1
  Li  Li3  1  0.023914  0.807804  0.289423  1
  Li  Li4  1  0.745662  0.014099  0.230811  1
  Li  Li5  1  0.719580  0.992319  0.783406  1
  Li  Li6  1  0.261159  0.967899  0.245671  1
  Li  Li7  1  0.245662  0.730811  0.014099  1
  Li  Li8  1  0.761159  0.745671  0.967899  1
  Li  Li9  1  0.219580  0.283406  0.992319  1
  Li  Li10  1  0.745662  0.514099  0.730811  1
  Li  Li11  1  0.719580  0.492319  0.283406  1
  Li  Li12  1  0.261159  0.467899  0.745671  1
  Li  Li13  1  0.245662  0.230811  0.514099  1
  Li  Li14  1  0.761159  0.245671  0.467899  1
  Li  Li15  1  0.219580  0.783406  0.492319  1
  Li  Li16  1  0.523914  0.289423  0.307804  1
  Li  Li17  1  0.485597  0.753438  0.240915  1
  Li  Li18  1  0.485597  0.253438  0.740915  1
  Li  Li19  1  0.523914  0.789423  0.807804  1
  Li  Li20  1  0.331165  0.511525  0.309302  1
  Li  Li21  1  0.074585  0.544226  0.207701  1
  Li  Li22  1  0.574585  0.707701  0.544226  1
  Li  Li23  1  0.831165  0.809302  0.511525  1
  Li  Li24  1  0.574585  0.207701  0.044226  1
  Li  Li25  1  0.831165  0.309302  0.011525  1
  Li  Li26  1  0.331165  0.011525  0.809302  1
  Li  Li27  1  0.074585  0.044226  0.707701  1
  Ge  Ge28  1  0.014176  0.997931  0.996985  1
  Ge  Ge29  1  0.014176  0.497931  0.496985  1
  Ge  Ge30  1  0.514176  0.996985  0.497931  1
  Ge  Ge31  1  0.514176  0.496985  0.997931  1
  S  S32  1  0.136431  0.115928  0.128628  1
  S  S33  1  0.888381  0.869701  0.112268  1
  S  S34  1  0.899305  0.121607  0.862987  1
  S  S35  1  0.141965  0.875843  0.863099  1
  S  S36  1  0.136431  0.615928  0.628628  1
  S  S37  1  0.888381  0.369701  0.612268  1
  S  S38  1  0.899305  0.621607  0.362987  1
  S  S39  1  0.141965  0.375843  0.363099  1
  S  S40  1  0.636431  0.128628  0.615928  1
  S  S41  1  0.399305  0.862987  0.621607  1
  S  S42  1  0.388381  0.112268  0.369701  1
  S  S43  1  0.641965  0.863099  0.375843  1
  S  S44  1  0.636431  0.628628  0.115928  1
  S  S45  1  0.399305  0.362987  0.121607  1
  S  S46  1  0.388381  0.612268  0.869701  1
  S  S47  1  0.641965  0.363099  0.875843  1
  S  S48  1  0.249577  0.232320  0.749190  1
  S  S49  1  0.749577  0.749190  0.732320  1
  S  S50  1  0.749577  0.249190  0.232320  1
  S  S51  1  0.249577  0.732320  0.249190  1
  Cl  Cl52  1  0.028503  0.942550  0.495313  1
  Cl  Cl53  1  0.528503  0.995313  0.942550  1
  Cl  Cl54  1  0.028503  0.442550  0.995313  1
  Cl  Cl55  1  0.528503  0.495313  0.442550  1
