# generated using pymatgen
data_Li7GeS5Cl
_symmetry_space_group_name_H-M   'P 1'
_cell_length_a   10.24986883
_cell_length_b   10.22165100
_cell_length_c   10.22165100
_cell_angle_alpha   89.54427956
_cell_angle_beta   88.71560180
_cell_angle_gamma   88.71560180
_symmetry_Int_Tables_number   1
_chemical_formula_structural   Li7GeS5Cl
_chemical_formula_sum   'Li28 Ge4 S20 Cl4'
_cell_volume   1070.36050425
_cell_formula_units_Z   4
loop_
 _symmetry_equiv_pos_site_id
 _symmetry_equiv_pos_as_xyz
  1  'x, y, z'
loop_
 _atom_site_type_symbol
 _atom_site_label
 _atom_site_symmetry_multiplicity
 _atom_site_fract_x
 _atom_site_fract_y
 _atom_site_fract_z
 _atom_site_occupancy
  Li  Li0  1  0.033599  0.304872  0.783497  1
  Li  Li1  1  0.011077  0.776338  0.671648  1
  Li  Li2  1  0.011077  0.276338  0.171648  1
  Li  Li3  1  0.033599  0.804872  0.283497  1
  Li  Li4  1  0.828766  0.012419  0.313227  1
  Li  Li5  1  0.719167  0.985492  0.783561  1
  Li  Li6  1  0.153221  0.088221  0.356356  1
  Li  Li7  1  0.328766  0.813227  0.012419  1
  Li  Li8  1  0.653221  0.856356  0.088221  1
  Li  Li9  1  0.219167  0.283561  0.985492  1
  Li  Li10  1  0.828766  0.512419  0.813227  1
  Li  Li11  1  0.719167  0.485492  0.283561  1
  Li  Li12  1  0.153221  0.588221  0.856356  1
  Li  Li13  1  0.328766  0.313227  0.512419  1
  Li  Li14  1  0.653221  0.356356  0.588221  1
  Li  Li15  1  0.219167  0.783561  0.485492  1
  Li  Li16  1  0.533599  0.283497  0.304872  1
  Li  Li17  1  0.511077  0.671648  0.276338  1
  Li  Li18  1  0.511077  0.171648  0.776338  1
  Li  Li19  1  0.533599  0.783497  0.804872  1
  Li  Li20  1  0.325033  0.478342  0.294728  1
  Li  Li21  1  0.059297  0.541184  0.177264  1
  Li  Li22  1  0.559297  0.677264  0.541184  1
  Li  Li23  1  0.825033  0.794728  0.478342  1
  Li  Li24  1  0.559297  0.177264  0.041184  1
  Li  Li25  1  0.825033  0.294728  0.978342  1
  Li  Li26  1  0.325033  0.978342  0.794728  1
  Li  Li27  1  0.059297  0.041184  0.677264  1
  Ge  Ge28  1  0.013475  0.984733  0.991130  1
  Ge  Ge29  1  0.013475  0.484733  0.491130  1
  Ge  Ge30  1  0.513475  0.991130  0.484733  1
  Ge  Ge31  1  0.513475  0.491130  0.984733  1
  S  S32  1  0.151806  0.093104  0.112650  1
  S  S33  1  0.883789  0.871435  0.121545  1
  S  S34  1  0.904097  0.110241  0.847156  1
  S  S35  1  0.135967  0.853605  0.856544  1
  S  S36  1  0.151806  0.593104  0.612650  1
  S  S37  1  0.883789  0.371435  0.621545  1
  S  S38  1  0.904097  0.610241  0.347156  1
  S  S39  1  0.135967  0.353605  0.356544  1
  S  S40  1  0.651806  0.112650  0.593104  1
  S  S41  1  0.404097  0.847156  0.610241  1
  S  S42  1  0.383789  0.121545  0.371435  1
  S  S43  1  0.635967  0.856544  0.353605  1
  S  S44  1  0.651806  0.612650  0.093104  1
  S  S45  1  0.404097  0.347156  0.110241  1
  S  S46  1  0.383789  0.621545  0.871435  1
  S  S47  1  0.635967  0.356544  0.853605  1
  S  S48  1  0.019541  0.932354  0.478010  1
  S  S49  1  0.519541  0.978010  0.932354  1
  S  S50  1  0.019541  0.432354  0.978010  1
  S  S51  1  0.519541  0.478010  0.432354  1
  Cl  Cl52  1  0.261165  0.205803  0.737432  1
  Cl  Cl53  1  0.761165  0.737432  0.705803  1
  Cl  Cl54  1  0.761165  0.237432  0.205803  1
  Cl  Cl55  1  0.261165  0.705803  0.237432  1
