data_Li6PS5Br_3a1c
_audit_creation_date              2019-04-15
_audit_creation_method            'Materials Studio'
_symmetry_space_group_name_H-M    'P1'
_symmetry_Int_Tables_number       1
_symmetry_cell_setting            triclinic
loop_
_symmetry_equiv_pos_as_xyz
  x,y,z
_cell_length_a                    10.1339
_cell_length_b                    10.1864
_cell_length_c                    10.1577
_cell_angle_alpha                 91.5890
_cell_angle_beta                  91.0379
_cell_angle_gamma                 90.0043
loop_
_atom_site_label
_atom_site_type_symbol
_atom_site_fract_x
_atom_site_fract_y
_atom_site_fract_z
_atom_site_U_iso_or_equiv
_atom_site_adp_type
_atom_site_occupancy
Br1    Br    0.23928   0.23750   0.74509   0.00000  Uiso   1.00
Br2    Br   -0.03310  -0.02768  -0.03634   0.00000  Uiso   1.00
Br3    Br   -0.05110   0.46244   0.49448   0.00000  Uiso   1.00
Br4    Br    0.49766  -0.03745   0.46736   0.00000  Uiso   1.00
Li5    Li    0.00802   0.30709   0.68289   0.00000  Uiso   1.00
Li6    Li    0.97262   0.76669   0.76378   0.00000  Uiso   1.00
Li7    Li    0.97545   0.27752   0.29360   0.00000  Uiso   1.00
Li8    Li    0.02145   0.74868   0.23145   0.00000  Uiso   1.00
Li9    Li    0.69031   0.03259   0.29082   0.00000  Uiso   1.00
Li10   Li    0.77170   0.98033   0.77669   0.00000  Uiso   1.00
Li11   Li    0.23824   0.96987   0.23210   0.00000  Uiso   1.00
Li12   Li    0.17085   0.00880   0.81654   0.00000  Uiso   1.00
Li13   Li    0.30774   0.69188   0.01607   0.00000  Uiso   1.00
Li14   Li    0.77175   0.77290   0.97091   0.00000  Uiso   1.00
Li15   Li    0.29394   0.29242  -0.00889   0.00000  Uiso   1.00
Li16   Li    0.81014   0.18354   0.02831   0.00000  Uiso   1.00
Li17   Li    0.78486   0.52760   0.68438   0.00000  Uiso   1.00
Li18   Li    0.77664   0.47803   0.28241   0.00000  Uiso   1.00
Li19   Li    0.30838   0.47973   0.80546   0.00000  Uiso   1.00
Li20   Li    0.28615   0.50972   0.20486   0.00000  Uiso   1.00
Li21   Li    0.33924   0.16755   0.51323   0.00000  Uiso   1.00
Li22   Li    0.75575   0.27311   0.47718   0.00000  Uiso   1.00
Li23   Li    0.26890   0.76702   0.47023   0.00000  Uiso   1.00
Li24   Li    0.70408   0.79468   0.51779   0.00000  Uiso   1.00
Li25   Li    0.52477   0.32393   0.18366   0.00000  Uiso   1.00
Li26   Li    0.47598   0.77676   0.27228   0.00000  Uiso   1.00
Li27   Li    0.59733   0.37824   0.88448   0.00000  Uiso   1.00
Li28   Li    0.51656   0.74491   0.75536   0.00000  Uiso   1.00
P29    P    -0.00382  -0.00386   0.49518   0.00000  Uiso   1.00
P30    P     0.49480   0.00325  -0.00121   0.00000  Uiso   1.00
P31    P    -0.01602   0.48909  -0.00833   0.00000  Uiso   1.00
P32    P     0.48859   0.49175   0.50313   0.00000  Uiso   1.00
S33    S     0.12044   0.11169   0.38897   0.00000  Uiso   1.00
S34    S     0.87702   0.88381   0.37115   0.00000  Uiso   1.00
S35    S     0.87749   0.11268   0.61146   0.00000  Uiso   1.00
S36    S     0.11299   0.88007   0.61288   0.00000  Uiso   1.00
S37    S     0.38274   0.11789   0.12263   0.00000  Uiso   1.00
S38    S     0.37176   0.88622   0.88121   0.00000  Uiso   1.00
S39    S     0.61334   0.88286   0.10978   0.00000  Uiso   1.00
S40    S     0.60856   0.12108   0.88541   0.00000  Uiso   1.00
S41    S     0.09430   0.36777   0.10747   0.00000  Uiso   1.00
S42    S     0.85959   0.37447   0.87054   0.00000  Uiso   1.00
S43    S     0.10207   0.59783   0.87375   0.00000  Uiso   1.00
S44    S     0.86941   0.60911   0.10922   0.00000  Uiso   1.00
S45    S     0.36904   0.61089   0.61708   0.00000  Uiso   1.00
S46    S     0.37770   0.36893   0.38306   0.00000  Uiso   1.00
S47    S     0.59894   0.37691   0.62686   0.00000  Uiso   1.00
S48    S     0.60509   0.60695   0.38811   0.00000  Uiso   1.00
S49    S     0.74360   0.75027   0.74113   0.00000  Uiso   1.00
S50    S     0.74573   0.25081   0.24480   0.00000  Uiso   1.00
S51    S     0.24888   0.74164   0.24014   0.00000  Uiso   1.00
S52    S     0.43416   0.47952   0.00941   0.00000  Uiso   1.00
loop_
_geom_bond_atom_site_label_1
_geom_bond_atom_site_label_2
_geom_bond_distance
_geom_bond_site_symmetry_2
_ccdc_geom_bond_type
P29    S33     2.063   .     D
P29    S34     2.054   1_445 S
P29    S35     2.055   1_455 S
P29    S36     2.063   1_545 S
P30    S37     2.051   .     D
P30    S38     2.066   1_544 S
P30    S39     2.061   1_545 S
P30    S40     2.054   1_554 S
P31    S41     2.048   .     D
P31    S42     2.081   1_454 S
P31    S43     2.054   1_554 S
P31    S44     2.059   1_455 S
P32    S45     2.062   .     S
P32    S46     2.045   .     S
P32    S47     2.056   .     S
P32    S48     2.064   .     D
S34    P29     2.054   1_665 S
S35    P29     2.055   1_655 S
S36    P29     2.063   1_565 S
S38    P30     2.066   1_566 S
S39    P30     2.061   1_565 S
S40    P30     2.054   1_556 S
S42    P31     2.081   1_656 S
S43    P31     2.054   1_556 S
S44    P31     2.059   1_655 S
