# generated using pymatgen
data_Li11P2(S3Br)3
_symmetry_space_group_name_H-M   'P 1'
_cell_length_a   10.19464892
_cell_length_b   10.17163446
_cell_length_c   10.01939395
_cell_angle_alpha   90.66765103
_cell_angle_beta   89.21406628
_cell_angle_gamma   90.76354536
_symmetry_Int_Tables_number   1
_chemical_formula_structural   Li11P2(S3Br)3
_chemical_formula_sum   'Li22 P4 S18 Br6'
_cell_volume   1038.71515544
_cell_formula_units_Z   2
loop_
 _symmetry_equiv_pos_site_id
 _symmetry_equiv_pos_as_xyz
  1  'x, y, z'
loop_
 _atom_site_type_symbol
 _atom_site_label
 _atom_site_symmetry_multiplicity
 _atom_site_fract_x
 _atom_site_fract_y
 _atom_site_fract_z
 _atom_site_occupancy
  Br  Br0  1  0.253661  0.244635  0.735912  1
  Br  Br1  1  0.763518  0.743352  0.750517  1
  Br  Br2  1  0.757805  0.257665  0.235575  1
  Br  Br3  1  -0.011197  -0.020266  -0.024711  1
  Br  Br4  1  0.011518  0.532924  0.483431  1
  Br  Br5  1  0.457390  0.022113  0.464985  1
  Li  Li6  1  0.027363  0.181778  0.823791  1
  Li  Li7  1  0.004153  0.794036  0.793684  1
  Li  Li8  1  0.989884  0.336565  0.315111  1
  Li  Li9  1  0.028758  0.721974  0.270853  1
  Li  Li10  1  0.827972  0.014202  0.185394  1
  Li  Li11  1  0.783649  -0.012984  0.791294  1
  Li  Li12  1  0.269476  0.983605  0.279341  1
  Li  Li13  1  0.330631  0.000095  0.686931  1
  Li  Li14  1  0.205983  0.820245  0.025083  1
  Li  Li15  1  0.687681  0.695975  -0.004370  1
  Li  Li16  1  0.707188  0.306615  -0.005081  1
  Li  Li17  1  0.705699  0.500309  0.786973  1
  Li  Li18  1  0.661636  0.493636  0.199237  1
  Li  Li19  1  0.158332  0.479035  0.686977  1
  Li  Li20  1  0.316239  0.534206  0.166339  1
  Li  Li21  1  0.290926  0.218594  0.488073  1
  Li  Li22  1  0.216812  0.704315  0.467403  1
  Li  Li23  1  0.813283  0.688376  0.507559  1
  Li  Li24  1  0.521393  0.197236  0.294414  1
  Li  Li25  1  0.478322  0.805026  0.302157  1
  Li  Li26  1  0.475772  0.322442  0.825857  1
  Li  Li27  1  0.423468  0.636577  0.855926  1
  P  P28  1  0.000995  0.004981  0.502159  1
  P  P29  1  0.500674  0.003514  0.000383  1
  P  P30  1  0.008117  0.501143  0.001427  1
  P  P31  1  0.495614  0.498136  0.500914  1
  S  S32  1  0.102784  0.126654  0.371756  1
  S  S33  1  0.883874  0.884322  0.384191  1
  S  S34  1  0.891073  0.118807  0.625709  1
  S  S35  1  0.127710  0.887160  0.606306  1
  S  S36  1  0.379739  0.121462  0.107492  1
  S  S37  1  0.393345  0.875561  0.880320  1
  S  S38  1  0.622628  0.895314  0.119290  1
  S  S39  1  0.610386  0.120041  0.871692  1
  S  S40  1  0.122431  0.386211  0.113022  1
  S  S41  1  0.904017  0.386972  0.865717  1
  S  S42  1  0.132856  0.622632  0.887985  1
  S  S43  1  0.882246  0.614811  0.115157  1
  S  S44  1  0.365517  0.602441  0.620997  1
  S  S45  1  0.391215  0.393399  0.358348  1
  S  S46  1  0.605429  0.373628  0.606598  1
  S  S47  1  0.612153  0.630917  0.395203  1
  S  S48  1  0.257519  0.753841  0.241207  1
  S  S49  1  0.552363  0.495769  -0.017567  1
