# generated using pymatgen
data_Li7SnS5Cl
_symmetry_space_group_name_H-M   'P 1'
_cell_length_a   10.58860947
_cell_length_b   10.61528701
_cell_length_c   10.59063550
_cell_angle_alpha   90.68905201
_cell_angle_beta   89.37739992
_cell_angle_gamma   88.44114337
_symmetry_Int_Tables_number   1
_chemical_formula_structural   Li7SnS5Cl
_chemical_formula_sum   'Li28 Sn4 S20 Cl4'
_cell_volume   1189.79816493
_cell_formula_units_Z   4
loop_
 _symmetry_equiv_pos_site_id
 _symmetry_equiv_pos_as_xyz
  1  'x, y, z'
loop_
 _atom_site_type_symbol
 _atom_site_label
 _atom_site_symmetry_multiplicity
 _atom_site_fract_x
 _atom_site_fract_y
 _atom_site_fract_z
 _atom_site_occupancy
  Li  Li0  1  0.029223  0.301852  0.789233  1
  Li  Li1  1  0.981291  0.741835  0.747158  1
  Li  Li2  1  0.995313  0.258794  0.215472  1
  Li  Li3  1  0.019182  0.805105  0.296133  1
  Li  Li4  1  0.772376  0.009866  0.245738  1
  Li  Li5  1  0.718552  0.997913  0.775457  1
  Li  Li6  1  0.174481  0.045373  0.339613  1
  Li  Li7  1  0.237926  0.732502  0.989143  1
  Li  Li8  1  0.766518  0.748938  0.964835  1
  Li  Li9  1  0.230164  0.274979  0.992086  1
  Li  Li10  1  0.749370  0.511706  0.740499  1
  Li  Li11  1  0.733153  0.482072  0.272417  1
  Li  Li12  1  0.274260  0.470932  0.748127  1
  Li  Li13  1  0.254062  0.249473  0.528662  1
  Li  Li14  1  0.796151  0.223053  0.466907  1
  Li  Li15  1  0.190293  0.817167  0.563347  1
  Li  Li16  1  0.533524  0.286234  0.307314  1
  Li  Li17  1  0.533654  0.706372  0.277220  1
  Li  Li18  1  0.494427  0.231634  0.757570  1
  Li  Li19  1  0.526344  0.796479  0.809609  1
  Li  Li20  1  0.320049  0.488058  0.295716  1
  Li  Li21  1  0.054234  0.535236  0.204028  1
  Li  Li22  1  0.587263  0.718368  0.553620  1
  Li  Li23  1  0.841256  0.820927  0.504004  1
  Li  Li24  1  0.574406  0.200679  0.043379  1
  Li  Li25  1  0.823668  0.299318  0.005156  1
  Li  Li26  1  0.320387  0.014859  0.795552  1
  Li  Li27  1  0.034647  0.033539  0.684359  1
  Sn  Sn28  1  0.015068  -0.001230  0.993308  1
  Sn  Sn29  1  0.009836  0.497224  0.500666  1
  Sn  Sn30  1  0.513933  0.005592  0.497034  1
  Sn  Sn31  1  0.516669  0.496562  0.997838  1
  S  S32  1  0.151534  0.112574  0.127052  1
  S  S33  1  0.888650  0.859851  0.113389  1
  S  S34  1  0.892468  0.127815  0.851642  1
  S  S35  1  0.140860  0.875940  0.840262  1
  S  S36  1  0.138062  0.613753  0.641618  1
  S  S37  1  0.880976  0.363967  0.623734  1
  S  S38  1  0.891044  0.624600  0.354846  1
  S  S39  1  0.139675  0.365895  0.359249  1
  S  S40  1  0.647581  0.140409  0.613201  1
  S  S41  1  0.403209  0.858363  0.627328  1
  S  S42  1  0.377979  0.135776  0.373750  1
  S  S43  1  0.651855  0.863876  0.375131  1
  S  S44  1  0.657636  0.626090  0.111865  1
  S  S45  1  0.402205  0.349793  0.125576  1
  S  S46  1  0.388642  0.623784  0.862430  1
  S  S47  1  0.646281  0.353505  0.871308  1
  S  S48  1  0.258552  0.244130  0.756488  1
  S  S49  1  0.750511  0.749002  0.733893  1
  S  S50  1  0.757108  0.244230  0.232580  1
  S  S51  1  0.028621  0.948317  0.476227  1
  Cl  Cl52  1  0.223776  0.686347  0.208757  1
  Cl  Cl53  1  0.525851  0.011651  0.918264  1
  Cl  Cl54  1  0.018389  0.417823  0.012086  1
  Cl  Cl55  1  0.516856  0.526880  0.413903  1
