# generated using pymatgen
data_Li7SiS5Cl
_symmetry_space_group_name_H-M   'P 1'
_cell_length_a   10.16380152
_cell_length_b   10.10245132
_cell_length_c   10.10245132
_cell_angle_alpha   89.42626882
_cell_angle_beta   88.48915992
_cell_angle_gamma   88.48915992
_symmetry_Int_Tables_number   1
_chemical_formula_structural   Li7SiS5Cl
_chemical_formula_sum   'Li28 Si4 S20 Cl4'
_cell_volume   1036.54655640
_cell_formula_units_Z   4
loop_
 _symmetry_equiv_pos_site_id
 _symmetry_equiv_pos_as_xyz
  1  'x, y, z'
loop_
 _atom_site_type_symbol
 _atom_site_label
 _atom_site_symmetry_multiplicity
 _atom_site_fract_x
 _atom_site_fract_y
 _atom_site_fract_z
 _atom_site_occupancy
  Li  Li0  1  0.033120  0.305981  0.782104  1
  Li  Li1  1  0.009930  0.774969  0.670164  1
  Li  Li2  1  0.009930  0.274969  0.170164  1
  Li  Li3  1  0.033120  0.805981  0.282104  1
  Li  Li4  1  0.827275  0.016096  0.313730  1
  Li  Li5  1  0.721221  0.983664  0.784472  1
  Li  Li6  1  0.155946  0.087077  0.353294  1
  Li  Li7  1  0.327275  0.813730  0.016096  1
  Li  Li8  1  0.655946  0.853294  0.087077  1
  Li  Li9  1  0.221221  0.284472  0.983664  1
  Li  Li10  1  0.827275  0.516096  0.813730  1
  Li  Li11  1  0.721221  0.483664  0.284472  1
  Li  Li12  1  0.155946  0.587077  0.853294  1
  Li  Li13  1  0.327275  0.313730  0.516096  1
  Li  Li14  1  0.655946  0.353294  0.587077  1
  Li  Li15  1  0.221221  0.784472  0.483664  1
  Li  Li16  1  0.533120  0.282104  0.305981  1
  Li  Li17  1  0.509930  0.670164  0.274969  1
  Li  Li18  1  0.509930  0.170164  0.774969  1
  Li  Li19  1  0.533120  0.782104  0.805981  1
  Li  Li20  1  0.323297  0.480034  0.297196  1
  Li  Li21  1  0.059813  0.541296  0.179426  1
  Li  Li22  1  0.559813  0.679426  0.541296  1
  Li  Li23  1  0.823297  0.797196  0.480034  1
  Li  Li24  1  0.559813  0.179426  0.041296  1
  Li  Li25  1  0.823297  0.297196  0.980034  1
  Li  Li26  1  0.323297  0.980034  0.797196  1
  Li  Li27  1  0.059813  0.041296  0.679426  1
  Si  Si28  1  0.014603  0.983941  0.989600  1
  Si  Si29  1  0.014603  0.483941  0.489600  1
  Si  Si30  1  0.514603  0.989600  0.483941  1
  Si  Si31  1  0.514603  0.489600  0.983941  1
  S  S32  1  0.148798  0.087826  0.105570  1
  S  S33  1  0.887937  0.875287  0.114925  1
  S  S34  1  0.906887  0.107711  0.854329  1
  S  S35  1  0.131869  0.855117  0.859587  1
  S  S36  1  0.148798  0.587826  0.605570  1
  S  S37  1  0.887937  0.375287  0.614925  1
  S  S38  1  0.906887  0.607711  0.354329  1
  S  S39  1  0.131869  0.355117  0.359587  1
  S  S40  1  0.648798  0.105570  0.587826  1
  S  S41  1  0.406887  0.854329  0.607711  1
  S  S42  1  0.387937  0.114925  0.375287  1
  S  S43  1  0.631869  0.859587  0.355117  1
  S  S44  1  0.648798  0.605570  0.087826  1
  S  S45  1  0.406887  0.354329  0.107711  1
  S  S46  1  0.387937  0.614925  0.875287  1
  S  S47  1  0.631869  0.359587  0.855117  1
  S  S48  1  0.018101  0.935193  0.477393  1
  S  S49  1  0.518101  0.977393  0.935193  1
  S  S50  1  0.018101  0.435193  0.977393  1
  S  S51  1  0.518101  0.477393  0.435193  1
  Cl  Cl52  1  0.261203  0.208192  0.738718  1
  Cl  Cl53  1  0.761203  0.738718  0.708192  1
  Cl  Cl54  1  0.761203  0.238718  0.208192  1
  Cl  Cl55  1  0.261203  0.708192  0.238718  1
