data_Li23P4S19I5_contcar
_audit_creation_date              2019-04-01
_audit_creation_method            'Materials Studio'
_symmetry_space_group_name_H-M    'P1'
_symmetry_Int_Tables_number       1
_symmetry_cell_setting            triclinic
loop_
_symmetry_equiv_pos_as_xyz
  x,y,z
_cell_length_a                    10.4308
_cell_length_b                    10.4308
_cell_length_c                    10.1582
_cell_angle_alpha                 90.0000
_cell_angle_beta                  90.0000
_cell_angle_gamma                 90.4631
loop_
_atom_site_label
_atom_site_type_symbol
_atom_site_fract_x
_atom_site_fract_y
_atom_site_fract_z
_atom_site_U_iso_or_equiv
_atom_site_adp_type
_atom_site_occupancy
I1     I     0.03279  -0.03279   0.00344   0.00000  Uiso   1.00
I2     I     0.46720   0.53279   0.00344   0.00000  Uiso   1.00
I3     I     0.52835   0.02835   0.50143   0.00000  Uiso   1.00
I4     I    -0.02835   0.47165   0.50143   0.00000  Uiso   1.00
I5     I     0.25000   0.75000   0.27681   0.00000  Uiso   1.00
Li6    Li    0.02555   0.28887   0.71416   0.00000  Uiso   1.00
Li7    Li    0.75000   0.75000   0.97722   0.00000  Uiso   1.00
Li8    Li    0.97248   0.27553   0.28932   0.00000  Uiso   1.00
Li9    Li    0.25000   0.75000   0.00170   0.00000  Uiso   1.00
Li10   Li   -0.00127   0.78508   0.21082   0.00000  Uiso   1.00
Li11   Li    0.75000   0.25000   0.03131   0.00000  Uiso   1.00
Li12   Li    0.97480   0.78569   0.77299   0.00000  Uiso   1.00
Li13   Li    0.25000   0.25000   0.97722   0.00000  Uiso   1.00
Li14   Li    0.21431   0.02520   0.77299   0.00000  Uiso   1.00
Li15   Li    0.21492   0.00127   0.21082   0.00000  Uiso   1.00
Li16   Li    0.71113   0.97445   0.71416   0.00000  Uiso   1.00
Li17   Li    0.72447   0.02752   0.28932   0.00000  Uiso   1.00
Li18   Li    0.52520   0.71431   0.77299   0.00000  Uiso   1.00
Li19   Li    0.50127   0.71492   0.21082   0.00000  Uiso   1.00
Li20   Li    0.52752   0.22447   0.28932   0.00000  Uiso   1.00
Li21   Li    0.47445   0.21113   0.71416   0.00000  Uiso   1.00
Li22   Li    0.78887   0.52555   0.71416   0.00000  Uiso   1.00
Li23   Li    0.77553   0.47248   0.28932   0.00000  Uiso   1.00
Li24   Li    0.28569   0.47480   0.77299   0.00000  Uiso   1.00
Li25   Li    0.28508   0.49873   0.21082   0.00000  Uiso   1.00
Li26   Li    0.75000   0.75000   0.52075   0.00000  Uiso   1.00
Li27   Li    0.25000   0.25000   0.52075   0.00000  Uiso   1.00
Li28   Li    0.75000   0.25000   0.49346   0.00000  Uiso   1.00
P29    P     0.00181  -0.00181   0.50663   0.00000  Uiso   1.00
P30    P     0.50393   0.00393  -0.00280   0.00000  Uiso   1.00
P31    P    -0.00393   0.49607  -0.00280   0.00000  Uiso   1.00
P32    P     0.49819   0.50181   0.50663   0.00000  Uiso   1.00
S33    S     0.11163   0.11705   0.38582   0.00000  Uiso   1.00
S34    S     0.39291   0.89291   0.87466   0.00000  Uiso   1.00
S35    S     0.89022   0.10978   0.62826   0.00000  Uiso   1.00
S36    S     0.61900   0.89163   0.11571   0.00000  Uiso   1.00
S37    S     0.11827   0.88173   0.61033   0.00000  Uiso   1.00
S38    S     0.39163   0.11900   0.11571   0.00000  Uiso   1.00
S39    S     0.88294   0.88837   0.38582   0.00000  Uiso   1.00
S40    S     0.61952   0.11952   0.88369   0.00000  Uiso   1.00
S41    S     0.88100   0.60837   0.11571   0.00000  Uiso   1.00
S42    S     0.88048   0.38049   0.88369   0.00000  Uiso   1.00
S43    S     0.10837   0.38100   0.11571   0.00000  Uiso   1.00
S44    S     0.10709   0.60709   0.87466   0.00000  Uiso   1.00
S45    S     0.61706   0.61163   0.38582   0.00000  Uiso   1.00
S46    S     0.38173   0.61827   0.61033   0.00000  Uiso   1.00
S47    S     0.60978   0.39022   0.62826   0.00000  Uiso   1.00
S48    S     0.38837   0.38294   0.38582   0.00000  Uiso   1.00
S49    S     0.25000   0.25000   0.74961   0.00000  Uiso   1.00
S50    S     0.75000   0.75000   0.74961   0.00000  Uiso   1.00
S51    S     0.75000   0.25000   0.25862   0.00000  Uiso   1.00
loop_
_geom_bond_atom_site_label_1
_geom_bond_atom_site_label_2
_geom_bond_distance
_geom_bond_site_symmetry_2
_ccdc_geom_bond_type
P29    S33     2.081   .     D
P29    S35     2.063   1_455 S
P29    S37     2.021   1_545 S
P29    S39     2.081   1_445 S
P30    S34     2.052   1_544 D
P30    S36     2.070   1_545 S
P30    S38     2.070   .     S
P30    S40     2.053   1_554 S
P31    S41     2.070   1_455 D
P31    S42     2.053   1_454 S
P31    S43     2.070   .     S
P31    S44     2.052   1_554 S
P32    S45     2.081   .     S
P32    S46     2.021   .     S
P32    S47     2.063   .     S
P32    S48     2.081   .     D
S34    P30     2.052   1_566 D
S35    P29     2.063   1_655 S
S36    P30     2.070   1_565 S
S37    P29     2.021   1_565 S
S39    P29     2.081   1_665 S
S40    P30     2.053   1_556 S
S41    P31     2.070   1_655 D
S42    P31     2.053   1_656 S
S44    P31     2.052   1_556 S
