# generated using pymatgen
data_Li7GeS5Cl
_symmetry_space_group_name_H-M   'P 1'
_cell_length_a   10.34982765
_cell_length_b   10.19506687
_cell_length_c   10.29884671
_cell_angle_alpha   90.76654555
_cell_angle_beta   90.08987401
_cell_angle_gamma   88.35621802
_symmetry_Int_Tables_number   1
_chemical_formula_structural   Li7GeS5Cl
_chemical_formula_sum   'Li28 Ge4 S20 Cl4'
_cell_volume   1086.16014224
_cell_formula_units_Z   4
loop_
 _symmetry_equiv_pos_site_id
 _symmetry_equiv_pos_as_xyz
  1  'x, y, z'
loop_
 _atom_site_type_symbol
 _atom_site_label
 _atom_site_symmetry_multiplicity
 _atom_site_fract_x
 _atom_site_fract_y
 _atom_site_fract_z
 _atom_site_occupancy
  Li  Li0  1  0.027005  0.315251  0.789803  1
  Li  Li1  1  0.982552  0.719515  0.769170  1
  Li  Li2  1  0.003877  0.184152  0.287489  1
  Li  Li3  1  0.017138  0.808384  0.294249  1
  Li  Li4  1  0.772171  0.007484  0.237773  1
  Li  Li5  1  0.717522  0.990906  0.785350  1
  Li  Li6  1  0.216042  0.988542  0.295233  1
  Li  Li7  1  0.237127  0.735465  0.999390  1
  Li  Li8  1  0.760285  0.742863  0.966948  1
  Li  Li9  1  0.231753  0.287283  0.985595  1
  Li  Li10  1  0.744774  0.508599  0.732107  1
  Li  Li11  1  0.713014  0.488931  0.296837  1
  Li  Li12  1  0.273288  0.471495  0.729531  1
  Li  Li13  1  0.231045  0.211206  0.511197  1
  Li  Li14  1  0.804543  0.198591  0.474019  1
  Li  Li15  1  0.181602  0.836733  0.557684  1
  Li  Li16  1  0.539498  0.284756  0.323688  1
  Li  Li17  1  0.497990  0.784142  0.221095  1
  Li  Li18  1  0.487536  0.253190  0.742240  1
  Li  Li19  1  0.526035  0.787308  0.805936  1
  Li  Li20  1  0.329379  0.502543  0.311078  1
  Li  Li21  1  0.004710  0.486070  0.202899  1
  Li  Li22  1  0.584419  0.707091  0.540880  1
  Li  Li23  1  0.842236  0.829021  0.513582  1
  Li  Li24  1  0.579692  0.201427  0.054706  1
  Li  Li25  1  0.835237  0.303590  0.016392  1
  Li  Li26  1  0.329212  0.013870  0.802651  1
  Li  Li27  1  0.050218  0.059871  0.686913  1
  Ge  Ge28  1  0.018080  0.000821  0.984941  1
  Ge  Ge29  1  0.012171  0.496977  0.494542  1
  Ge  Ge30  1  0.516566  0.999621  0.496006  1
  Ge  Ge31  1  0.515205  0.496468  0.000895  1
  S  S32  1  0.146244  0.114990  0.112684  1
  S  S33  1  0.901888  0.862784  0.099692  1
  S  S34  1  0.894512  0.128426  0.857834  1
  S  S35  1  0.138231  0.879212  0.841758  1
  S  S36  1  0.133322  0.619457  0.622533  1
  S  S37  1  0.889114  0.368145  0.610650  1
  S  S38  1  0.892805  0.625008  0.361996  1
  S  S39  1  0.138198  0.373373  0.359976  1
  S  S40  1  0.637632  0.131016  0.614321  1
  S  S41  1  0.404086  0.862316  0.618350  1
  S  S42  1  0.389975  0.115842  0.364679  1
  S  S43  1  0.647774  0.866521  0.375711  1
  S  S44  1  0.637558  0.628266  0.118340  1
  S  S45  1  0.404994  0.361514  0.127540  1
  S  S46  1  0.386835  0.614090  0.870144  1
  S  S47  1  0.642203  0.360426  0.880880  1
  S  S48  1  0.251786  0.237968  0.746215  1
  S  S49  1  0.751573  0.746551  0.731723  1
  S  S50  1  0.764710  0.245127  0.239457  1
  S  S51  1  0.028135  0.990459  0.456422  1
  Cl  Cl52  1  0.263966  0.747492  0.232562  1
  Cl  Cl53  1  0.530684  0.989939  0.944247  1
  Cl  Cl54  1  0.018352  0.457707  0.980115  1
  Cl  Cl55  1  0.523503  0.496986  0.447134  1
