# generated using pymatgen
data_Li7GeSe5Cl
_symmetry_space_group_name_H-M   'P 1'
_cell_length_a   10.61700833
_cell_length_b   10.65868523
_cell_length_c   11.06379665
_cell_angle_alpha   90.21783544
_cell_angle_beta   90.94832020
_cell_angle_gamma   87.59224257
_symmetry_Int_Tables_number   1
_chemical_formula_structural   Li7GeSe5Cl
_chemical_formula_sum   'Li28 Ge4 Se20 Cl4'
_cell_volume   1250.73356546
_cell_formula_units_Z   4
loop_
 _symmetry_equiv_pos_site_id
 _symmetry_equiv_pos_as_xyz
  1  'x, y, z'
loop_
 _atom_site_type_symbol
 _atom_site_label
 _atom_site_symmetry_multiplicity
 _atom_site_fract_x
 _atom_site_fract_y
 _atom_site_fract_z
 _atom_site_occupancy
  Li  Li0  1  0.015361  0.290041  0.742644  1
  Li  Li1  1  0.999802  0.703522  0.800898  1
  Li  Li2  1  0.978960  0.197437  0.316992  1
  Li  Li3  1  0.015881  0.785942  0.266542  1
  Li  Li4  1  0.804392  0.997479  0.292789  1
  Li  Li5  1  0.716995  0.976995  0.757778  1
  Li  Li6  1  0.191882  0.991267  0.272973  1
  Li  Li7  1  0.383095  0.784559  0.958358  1
  Li  Li8  1  0.708080  0.787383  0.957191  1
  Li  Li9  1  0.240808  0.232557  0.952159  1
  Li  Li10  1  0.804543  0.499106  0.793023  1
  Li  Li11  1  0.661918  0.572258  0.285270  1
  Li  Li12  1  0.201799  0.474754  0.796652  1
  Li  Li13  1  0.204876  0.161399  0.492008  1
  Li  Li14  1  0.668845  0.303003  0.454507  1
  Li  Li15  1  0.172710  0.808727  0.484827  1
  Li  Li16  1  0.383089  0.340026  0.323166  1
  Li  Li17  1  0.447342  0.732189  0.428849  1
  Li  Li18  1  0.488363  0.330513  0.731399  1
  Li  Li19  1  0.534371  0.765114  0.731036  1
  Li  Li20  1  0.374153  0.577316  0.222916  1
  Li  Li21  1  0.292764  0.450631  0.545986  1
  Li  Li22  1  0.712294  0.593236  0.544996  1
  Li  Li23  1  0.854344  0.827532  0.523533  1
  Li  Li24  1  0.580746  0.232301  0.114491  1
  Li  Li25  1  0.909319  0.281733  0.994844  1
  Li  Li26  1  0.414287  0.058379  0.742779  1
  Li  Li27  1  0.100973  0.014465  0.700258  1
  Ge  Ge28  1  0.008611  0.989055  0.984016  1
  Ge  Ge29  1  0.998517  0.496173  0.487653  1
  Ge  Ge30  1  0.502941  0.006956  0.478344  1
  Ge  Ge31  1  0.512859  0.490726  0.978012  1
  Se  Se32  1  0.096155  0.149119  0.108681  1
  Se  Se33  1  0.871117  0.871574  0.101244  1
  Se  Se34  1  0.899826  0.104560  0.825025  1
  Se  Se35  1  0.160608  0.859855  0.879755  1
  Se  Se36  1  0.129299  0.619185  0.616295  1
  Se  Se37  1  0.850857  0.376413  0.592828  1
  Se  Se38  1  0.874238  0.635604  0.363509  1
  Se  Se39  1  0.138651  0.363429  0.373051  1
  Se  Se40  1  0.607260  0.141952  0.616932  1
  Se  Se41  1  0.365655  0.880870  0.597480  1
  Se  Se42  1  0.384393  0.110310  0.322387  1
  Se  Se43  1  0.646559  0.856398  0.392858  1
  Se  Se44  1  0.560813  0.667823  0.099835  1
  Se  Se45  1  0.368886  0.371446  0.091945  1
  Se  Se46  1  0.410759  0.576973  0.801856  1
  Se  Se47  1  0.669512  0.338625  0.914241  1
  Se  Se48  1  0.252486  0.244204  0.720035  1
  Se  Se49  1  0.770647  0.734833  0.732799  1
  Se  Se50  1  0.020704  0.990592  0.443476  1
  Se  Se51  1  0.503586  0.498819  0.435381  1
  Cl  Cl52  1  0.750473  0.220267  0.263838  1
  Cl  Cl53  1  0.245215  0.758297  0.280655  1
  Cl  Cl54  1  0.531123  0.940477  0.895140  1
  Cl  Cl55  1  0.006258  0.461382  0.899642  1
