# generated using pymatgen
data_Li5P(S2Br)2
_symmetry_space_group_name_H-M   'P 1'
_cell_length_a   10.09336896
_cell_length_b   10.15694752
_cell_length_c   9.99134438
_cell_angle_alpha   90.02779261
_cell_angle_beta   89.06083225
_cell_angle_gamma   89.90138710
_symmetry_Int_Tables_number   1
_chemical_formula_structural   Li5P(S2Br)2
_chemical_formula_sum   'Li20 P4 S16 Br8'
_cell_volume   1024.15157993
_cell_formula_units_Z   4
loop_
 _symmetry_equiv_pos_site_id
 _symmetry_equiv_pos_as_xyz
  1  'x, y, z'
loop_
 _atom_site_type_symbol
 _atom_site_label
 _atom_site_symmetry_multiplicity
 _atom_site_fract_x
 _atom_site_fract_y
 _atom_site_fract_z
 _atom_site_occupancy
  Br  Br1  1  0.246354  0.246929  0.757628  1
  Br  Br2  1  0.761976  0.767461  0.750207  1
  Br  Br3  1  0.742703  0.265115  0.272388  1
  Br  Br4  1  0.247203  0.752776  0.240977  1
  Br  Br5  1  0.026071  0.021073  0.995643  1
  Br  Br6  1  0.978493  0.507720  0.520819  1
  Br  Br7  1  0.506451  0.024839  0.489388  1
  Br  Br8  1  0.494090  0.526882  0.005514  1
  Li  Li9  1  0.013743  0.318124  0.695938  1
  Li  Li10  1  0.006682  0.708603  0.681371  1
  Li  Li11  1  0.977298  0.197275  0.204358  1
  Li  Li12  1  0.014076  0.830998  0.170760  1
  Li  Li13  1  0.683794  0.012653  0.297935  1
  Li  Li14  1  0.822041  0.009808  0.835610  1
  Li  Li15  1  0.302973  0.983416  0.327335  1
  Li  Li16  1  0.201301  0.997900  0.796200  1
  Li  Li17  1  0.301568  0.706295  0.995900  1
  Li  Li18  1  0.694929  0.689150  0.980059  1
  Li  Li19  1  0.203629  0.214801  0.005271  1
  Li  Li20  1  0.772488  0.518259  0.699206  1
  Li  Li21  1  0.821348  0.511214  0.313224  1
  Li  Li22  1  0.353391  0.477474  0.789132  1
  Li  Li23  1  0.336454  0.220523  0.515825  1
  Li  Li24  1  0.689209  0.212122  0.521168  1
  Li  Li25  1  0.210200  0.553902  0.405208  1
  Li  Li26  1  0.525643  0.809309  0.635885  1
  Li  Li27  1  0.551117  0.283775  0.097942  1
  Li  Li28  1  0.491527  0.676902  0.223557  1
  P  P29  1  0.007861  0.018789  0.495358  1
  P  P30  1  0.503786  0.996428  0.001087  1
  P  P31  1  0.999141  0.503809  0.994770  1
  P  P32  1  0.495724  0.510177  0.500379  1
  S  S33  1  0.129511  0.149058  0.391926  1
  S  S34  1  0.892772  0.916971  0.364855  1
  S  S35  1  0.887533  0.124570  0.627317  1
  S  S36  1  0.130825  0.892718  0.594196  1
  S  S37  1  0.379676  0.105570  0.125310  1
  S  S38  1  0.401823  0.883305  0.864748  1
  S  S39  1  0.609677  0.868727  0.121961  1
  S  S40  1  0.626355  0.129368  0.913233  1
  S  S41  1  0.104602  0.393232  0.128026  1
  S  S42  1  0.872547  0.393305  0.883592  1
  S  S43  1  0.128542  0.605416  0.869124  1
  S  S44  1  0.887584  0.635328  0.109962  1
  S  S45  1  0.359445  0.629302  0.598430  1
  S  S46  1  0.394940  0.401198  0.362766  1
  S  S47  1  0.579159  0.389818  0.642126  1
  S  S48  1  0.631742  0.634133  0.412907  1
