# generated using pymatgen
data_Li7GeSe5Cl
_symmetry_space_group_name_H-M   'P 1'
_cell_length_a   10.80264194
_cell_length_b   10.86510179
_cell_length_c   10.75848307
_cell_angle_alpha   93.14703748
_cell_angle_beta   89.00695041
_cell_angle_gamma   89.34184860
_symmetry_Int_Tables_number   1
_chemical_formula_structural   Li7GeSe5Cl
_chemical_formula_sum   'Li28 Ge4 Se20 Cl4'
_cell_volume   1260.55105900
_cell_formula_units_Z   4
loop_
 _symmetry_equiv_pos_site_id
 _symmetry_equiv_pos_as_xyz
  1  'x, y, z'
loop_
 _atom_site_type_symbol
 _atom_site_label
 _atom_site_symmetry_multiplicity
 _atom_site_fract_x
 _atom_site_fract_y
 _atom_site_fract_z
 _atom_site_occupancy
  Li  Li0  1  0.995129  0.326249  0.816216  1
  Li  Li1  1  0.975334  0.741391  0.782415  1
  Li  Li2  1  0.008084  0.194960  0.330002  1
  Li  Li3  1  0.047963  0.801984  0.282154  1
  Li  Li4  1  0.837763  0.995255  0.326598  1
  Li  Li5  1  0.714330  0.993034  0.785261  1
  Li  Li6  1  0.215725  0.996192  0.303299  1
  Li  Li7  1  0.262477  0.766579  0.998007  1
  Li  Li8  1  0.728136  0.786172  0.971058  1
  Li  Li9  1  0.219998  0.300422  0.981287  1
  Li  Li10  1  0.753260  0.525989  0.707263  1
  Li  Li11  1  0.704126  0.542121  0.302853  1
  Li  Li12  1  0.218325  0.480399  0.787445  1
  Li  Li13  1  0.222688  0.201556  0.516680  1
  Li  Li14  1  0.714104  0.284427  0.472060  1
  Li  Li15  1  0.179004  0.836797  0.559506  1
  Li  Li16  1  0.391370  0.109087  0.126298  1
  Li  Li17  1  0.503204  0.835824  0.180954  1
  Li  Li18  1  0.470042  0.307536  0.704039  1
  Li  Li19  1  0.520153  0.802652  0.809124  1
  Li  Li20  1  0.410770  0.379341  0.342514  1
  Li  Li21  1  0.056266  0.477406  0.190173  1
  Li  Li22  1  0.579616  0.710905  0.546578  1
  Li  Li23  1  0.854728  0.809089  0.515222  1
  Li  Li24  1  0.552938  0.215422  0.953564  1
  Li  Li25  1  0.748953  0.065544  0.080978  1
  Li  Li26  1  0.345685  0.031331  0.798362  1
  Li  Li27  1  0.053927  0.073720  0.701939  1
  Ge  Ge28  1  0.023464  0.009880  0.994080  1
  Ge  Ge29  1  0.026295  0.497477  0.496711  1
  Ge  Ge30  1  0.523561  0.000223  0.496882  1
  Ge  Ge31  1  0.519969  0.505864  0.985669  1
  Se  Se32  1  0.145769  0.136892  0.128949  1
  Se  Se33  1  0.899445  0.874139  0.110944  1
  Se  Se34  1  0.882964  0.132360  0.883073  1
  Se  Se35  1  0.147871  0.893561  0.843509  1
  Se  Se36  1  0.129311  0.629725  0.639698  1
  Se  Se37  1  0.895844  0.362028  0.602511  1
  Se  Se38  1  0.920160  0.616730  0.347145  1
  Se  Se39  1  0.164900  0.371869  0.366921  1
  Se  Se40  1  0.628447  0.140379  0.630994  1
  Se  Se41  1  0.401134  0.864977  0.616088  1
  Se  Se42  1  0.399925  0.124272  0.367412  1
  Se  Se43  1  0.654955  0.859223  0.374875  1
  Se  Se44  1  0.630114  0.643522  0.118853  1
  Se  Se45  1  0.413317  0.354532  0.103500  1
  Se  Se46  1  0.387496  0.620485  0.859850  1
  Se  Se47  1  0.649903  0.383990  0.846949  1
  Se  Se48  1  0.243127  0.241631  0.747040  1
  Se  Se49  1  0.749143  0.758033  0.728103  1
  Se  Se50  1  0.034357  0.985509  0.462902  1
  Se  Se51  1  0.538898  0.985159  0.980728  1
  Cl  Cl52  1  0.792704  0.198727  0.272262  1
  Cl  Cl53  1  0.267733  0.797407  0.213486  1
  Cl  Cl54  1  0.070720  0.469250  0.972361  1
  Cl  Cl55  1  0.574377  0.476550  0.462438  1
