# generated using pymatgen
data_Li6PSe5Br
_symmetry_space_group_name_H-M   'P 1'
_cell_length_a   10.67756991
_cell_length_b   10.67756991
_cell_length_c   10.67756991
_cell_angle_alpha   89.42969813
_cell_angle_beta   90.57030187
_cell_angle_gamma   90.57030187
_symmetry_Int_Tables_number   1
_chemical_formula_structural   Li6PSe5Br
_chemical_formula_sum   'Li24 P4 Se20 Br4'
_cell_volume   1217.17535405
_cell_formula_units_Z   4
loop_
 _symmetry_equiv_pos_site_id
 _symmetry_equiv_pos_as_xyz
  1  'x, y, z'
loop_
 _atom_site_type_symbol
 _atom_site_label
 _atom_site_symmetry_multiplicity
 _atom_site_fract_x
 _atom_site_fract_y
 _atom_site_fract_z
 _atom_site_occupancy
  Br  Br0  1  0.034991  0.965009  0.465009  1
  Br  Br1  1  0.259402  0.251911  0.751911  1
  Br  Br2  1  0.748089  0.740598  0.751911  1
  Br  Br3  1  0.748089  0.251911  0.240598  1
  Li  Li4  1  0.013227  0.325902  0.825902  1
  Li  Li5  1  0.516103  0.210812  0.179254  1
  Li  Li6  1  0.012003  0.654806  0.832248  1
  Li  Li7  1  0.457158  0.766132  0.266132  1
  Li  Li8  1  0.012003  0.332248  0.154806  1
  Li  Li9  1  0.497848  0.246720  0.746720  1
  Li  Li10  1  0.001442  0.803077  0.303077  1
  Li  Li11  1  0.516103  0.679254  0.710812  1
  Li  Li12  1  0.667752  0.987997  0.154806  1
  Li  Li13  1  0.753280  0.502152  0.746720  1
  Li  Li14  1  0.674098  0.986773  0.825902  1
  Li  Li15  1  0.789188  0.483897  0.179254  1
  Li  Li16  1  0.196923  0.998558  0.303077  1
  Li  Li17  1  0.320746  0.483897  0.710812  1
  Li  Li18  1  0.345194  0.987997  0.832248  1
  Li  Li19  1  0.233868  0.542842  0.266132  1
  Li  Li20  1  0.233868  0.766132  0.042842  1
  Li  Li21  1  0.345194  0.332248  0.487997  1
  Li  Li22  1  0.789188  0.679254  0.983897  1
  Li  Li23  1  0.674098  0.325902  0.486773  1
  Li  Li24  1  0.320746  0.210812  0.983897  1
  Li  Li25  1  0.196923  0.803077  0.498558  1
  Li  Li26  1  0.753280  0.246720  0.002152  1
  Li  Li27  1  0.667752  0.654806  0.487997  1
  P  P28  1  0.001165  0.998835  0.985123  1
  P  P29  1  0.001165  0.485123  0.498835  1
  P  P30  1  0.514877  0.998835  0.498835  1
  P  P31  1  0.484628  0.515372  0.015372  1
  Se  Se32  1  0.514641  0.485359  0.565485  1
  Se  Se33  1  0.934515  0.485359  0.985359  1
  Se  Se34  1  0.514641  0.065485  0.985359  1
  Se  Se35  1  0.233707  0.766293  0.266293  1
  Se  Se36  1  0.121733  0.124392  0.101967  1
  Se  Se37  1  0.121733  0.601967  0.624392  1
  Se  Se38  1  0.646269  0.112726  0.612726  1
  Se  Se39  1  0.605689  0.636686  0.136686  1
  Se  Se40  1  0.875608  0.878267  0.101967  1
  Se  Se41  1  0.887274  0.353731  0.612726  1
  Se  Se42  1  0.398033  0.878267  0.624392  1
  Se  Se43  1  0.363314  0.394311  0.136686  1
  Se  Se44  1  0.887274  0.112726  0.853731  1
  Se  Se45  1  0.875608  0.601967  0.378267  1
  Se  Se46  1  0.398033  0.124392  0.378267  1
  Se  Se47  1  0.363314  0.636686  0.894311  1
  Se  Se48  1  0.123105  0.876895  0.869220  1
  Se  Se49  1  0.123105  0.369220  0.376895  1
  Se  Se50  1  0.630780  0.876895  0.376895  1
  Se  Se51  1  0.601234  0.398766  0.898766  1
