# generated using pymatgen
data_Li23P4S19Cl5
_symmetry_space_group_name_H-M   'P 1'
_cell_length_a   9.97915430
_cell_length_b   10.03796788
_cell_length_c   9.96902123
_cell_angle_alpha   91.14637034
_cell_angle_beta   90.86537894
_cell_angle_gamma   89.18376105
_symmetry_Int_Tables_number   1
_chemical_formula_structural   Li23P4S19Cl5
_chemical_formula_sum   'Li23 P4 S19 Cl5'
_cell_volume   998.19028918
_cell_formula_units_Z   1
loop_
 _symmetry_equiv_pos_site_id
 _symmetry_equiv_pos_as_xyz
  1  'x, y, z'
loop_
 _atom_site_type_symbol
 _atom_site_label
 _atom_site_symmetry_multiplicity
 _atom_site_fract_x
 _atom_site_fract_y
 _atom_site_fract_z
 _atom_site_occupancy
  Cl  Cl1  1  0.261100  0.251326  0.733442  1
  Cl  Cl2  1  0.759545  0.764643  0.740000  1
  Cl  Cl3  1  0.492841  0.489956  0.467701  1
  Cl  Cl4  1  -0.014237  0.011604  0.500432  1
  Cl  Cl5  1  0.049877  0.549249  0.007962  1
  Li  Li6  1  0.090740  0.083308  0.705124  1
  Li  Li7  1  0.522973  0.308034  0.296452  1
  Li  Li8  1  0.980252  0.695259  0.818286  1
  Li  Li9  1  0.469914  0.753225  0.239368  1
  Li  Li10  1  0.973955  0.273975  0.205587  1
  Li  Li11  1  0.482736  0.196442  0.803281  1
  Li  Li12  1  0.011984  0.711297  0.208797  1
  Li  Li13  1  0.401984  0.888164  0.837686  1
  Li  Li14  1  0.692421  0.028451  0.187204  1
  Li  Li15  1  0.666457  0.524831  0.649394  1
  Li  Li16  1  0.720385  0.005428  0.789568  1
  Li  Li17  1  0.727284  0.484072  0.287805  1
  Li  Li18  1  0.178871  0.963368  0.346202  1
  Li  Li19  1  0.197956  0.461822  0.828557  1
  Li  Li20  1  0.220476  0.514642  0.210662  1
  Li  Li21  1  0.221325  0.723670  0.024178  1
  Li  Li22  1  0.313979  0.322083  0.516295  1
  Li  Li23  1  0.677799  0.804841  -0.030925  1
  Li  Li24  1  0.817547  0.193245  0.463291  1
  Li  Li25  1  0.374448  0.115481  0.095259  1
  Li  Li26  1  0.305245  0.681135  0.481330  1
  Li  Li27  1  0.711892  0.226889  0.006925  1
  Li  Li28  1  0.826487  0.838101  0.515307  1
  P  P29  1  0.011405  0.003565  -0.001777  1
  P  P30  1  -0.002188  0.500341  0.505762  1
  P  P31  1  0.500199  0.006380  0.487495  1
  P  P32  1  0.504040  0.505012  -0.014029  1
  S  S33  1  0.129292  0.100248  0.138180  1
  S  S34  1  0.125543  0.603859  0.632225  1
  S  S35  1  0.618789  0.128496  0.604397  1
  S  S36  1  0.623499  0.618986  0.112271  1
  S  S37  1  0.881175  0.882087  0.094594  1
  S  S38  1  0.873812  0.388267  0.614573  1
  S  S39  1  0.370442  0.897576  0.595268  1
  S  S40  1  0.385551  0.378731  0.092104  1
  S  S41  1  0.913050  0.139186  0.880371  1
  S  S42  1  0.883778  0.631946  0.392239  1
  S  S43  1  0.381376  0.126024  0.363590  1
  S  S44  1  0.386080  0.629733  0.871852  1
  S  S45  1  0.130494  0.890126  0.869163  1
  S  S46  1  0.112782  0.381134  0.379082  1
  S  S47  1  0.623092  0.885814  0.371885  1
  S  S48  1  0.621885  0.395705  0.857685  1
  S  S49  1  0.241403  0.744485  0.258750  1
  S  S50  1  0.746251  0.254377  0.241405  1
  S  S51  1  0.552018  0.020265  -0.032255  1
