# generated using pymatgen
data_Li7SiTe5I
_symmetry_space_group_name_H-M   'P 1'
_cell_length_a   11.57546056
_cell_length_b   11.65518576
_cell_length_c   11.71852031
_cell_angle_alpha   90.35968907
_cell_angle_beta   88.92662233
_cell_angle_gamma   89.09772026
_symmetry_Int_Tables_number   1
_chemical_formula_structural   Li7SiTe5I
_chemical_formula_sum   'Li28 Si4 Te20 I4'
_cell_volume   1580.48654039
_cell_formula_units_Z   4
loop_
 _symmetry_equiv_pos_site_id
 _symmetry_equiv_pos_as_xyz
  1  'x, y, z'
loop_
 _atom_site_type_symbol
 _atom_site_label
 _atom_site_symmetry_multiplicity
 _atom_site_fract_x
 _atom_site_fract_y
 _atom_site_fract_z
 _atom_site_occupancy
  Li  Li0  1  0.016664  0.312604  0.806024  1
  Li  Li1  1  0.991494  0.776455  0.687638  1
  Li  Li2  1  0.996109  0.274470  0.182652  1
  Li  Li3  1  0.010853  0.793099  0.297368  1
  Li  Li4  1  0.832824  0.003869  0.311664  1
  Li  Li5  1  0.742696  0.977525  0.758332  1
  Li  Li6  1  0.127118  0.097826  0.362831  1
  Li  Li7  1  0.296090  0.901807  0.018613  1
  Li  Li8  1  0.776764  0.724511  0.959531  1
  Li  Li9  1  0.222694  0.268546  0.986345  1
  Li  Li10  1  0.732905  0.511574  0.721565  1
  Li  Li11  1  0.708453  0.459096  0.303480  1
  Li  Li12  1  0.271257  0.479114  0.754659  1
  Li  Li13  1  0.294553  0.293679  0.523900  1
  Li  Li14  1  0.771672  0.217975  0.479002  1
  Li  Li15  1  0.194891  0.813009  0.485472  1
  Li  Li16  1  0.520645  0.235803  0.255987  1
  Li  Li17  1  0.504821  0.679000  0.277652  1
  Li  Li18  1  0.473253  0.185564  0.820256  1
  Li  Li19  1  0.520023  0.798451  0.810926  1
  Li  Li20  1  0.225134  0.555262  0.082157  1
  Li  Li21  1  0.273800  0.539532  0.389275  1
  Li  Li22  1  0.586492  0.709780  0.547372  1
  Li  Li23  1  0.819213  0.798523  0.502128  1
  Li  Li24  1  0.771956  0.372205  0.043229  1
  Li  Li25  1  0.729890  0.063475  0.065834  1
  Li  Li26  1  0.335128  0.067388  0.633467  1
  Li  Li27  1  0.057526  0.064296  0.708968  1
  Si  Si28  1  0.010517  0.988846  0.988893  1
  Si  Si29  1  0.003713  0.481347  0.490128  1
  Si  Si30  1  0.510016  0.977876  0.492682  1
  Si  Si31  1  0.504436  0.489328  0.995082  1
  Te  Te32  1  0.151708  0.086722  0.119237  1
  Te  Te33  1  0.876910  0.869401  0.112931  1
  Te  Te34  1  0.880457  0.126876  0.880263  1
  Te  Te35  1  0.132874  0.877138  0.846622  1
  Te  Te36  1  0.146489  0.604003  0.597066  1
  Te  Te37  1  0.883210  0.360729  0.621795  1
  Te  Te38  1  0.879328  0.607263  0.367667  1
  Te  Te39  1  0.131369  0.352434  0.362688  1
  Te  Te40  1  0.612175  0.115599  0.622089  1
  Te  Te41  1  0.391373  0.840155  0.613789  1
  Te  Te42  1  0.368780  0.107287  0.388007  1
  Te  Te43  1  0.637687  0.860988  0.358605  1
  Te  Te44  1  0.655840  0.591069  0.111033  1
  Te  Te45  1  0.377346  0.375070  0.128232  1
  Te  Te46  1  0.368922  0.633220  0.902838  1
  Te  Te47  1  0.620893  0.362193  0.860365  1
  Te  Te48  1  0.243502  0.243722  0.750546  1
  Te  Te49  1  0.748072  0.743907  0.727590  1
  Te  Te50  1  0.761155  0.228364  0.243404  1
  Te  Te51  1  0.996679  0.954831  0.492192  1
  I  I52  1  0.257169  0.737119  0.250153  1
  I  I53  1  0.518365  0.989835  0.964143  1
  I  I54  1  0.019557  0.443400  0.007122  1
  I  I55  1  0.506539  0.502620  0.454295  1
